MODEL 1
REMARK VINA RESULT:      -5.8      0.000      0.000
REMARK  2 active torsions:
REMARK  status: ('A' for Active; 'I' for Inactive)
REMARK    1  A    between atoms: C_2  and  S_3 
REMARK    2  A    between atoms: C_4  and  C_11 
ROOT
HETATM    1  C   UNL     1      64.039   7.181   5.396  1.00  0.00     0.084 A 
HETATM    2  C   UNL     1      63.980   6.018   6.143  1.00  0.00     0.120 A 
HETATM    3  C   UNL     1      62.791   7.485   4.734  1.00  0.00     0.003 A 
HETATM    4  S   UNL     1      62.408   5.337   6.118  1.00  0.00    -0.088 SA
HETATM    5  C   UNL     1      61.823   6.556   5.074  1.00  0.00     0.065 A 
HETATM    6  C   UNL     1      65.236   7.965   5.301  1.00  0.00     0.102 C 
HETATM    7  N   UNL     1      66.175   8.637   5.185  1.00  0.00    -0.191 NA
ENDROOT
BRANCH   2   8
HETATM    8  S   UNL     1      65.202   5.111   7.064  1.00  0.00     0.179 S 
HETATM    9  O   UNL     1      65.789   6.068   7.979  1.00  0.00    -0.222 OA
HETATM   10  O   UNL     1      64.521   3.926   7.537  1.00  0.00    -0.222 OA
HETATM   11  C   UNL     1      66.410   4.614   5.868  1.00  0.00     0.167 C 
ENDBRANCH   2   8
BRANCH   3  12
HETATM   12  C   UNL     1      62.499   8.587   3.805  1.00  0.00    -0.024 A 
HETATM   13  C   UNL     1      62.285   9.886   4.295  1.00  0.00     0.012 A 
HETATM   14  C   UNL     1      61.948  10.934   3.437  1.00  0.00     0.001 A 
HETATM   15  C   UNL     1      61.860  10.712   2.067  1.00  0.00     0.000 A 
HETATM   16  C   UNL     1      62.109   9.439   1.557  1.00  0.00     0.001 A 
HETATM   17  C   UNL     1      62.419   8.381   2.419  1.00  0.00     0.012 A 
ENDBRANCH   3  12
TORSDOF 2
ENDMDL
MODEL 2
REMARK VINA RESULT:      -5.5      2.165      2.774
REMARK  2 active torsions:
REMARK  status: ('A' for Active; 'I' for Inactive)
REMARK    1  A    between atoms: C_2  and  S_3 
REMARK    2  A    between atoms: C_4  and  C_11 
ROOT
HETATM    1  C   UNL     1      64.036   7.678   4.671  1.00  0.00     0.084 A 
HETATM    2  C   UNL     1      65.138   7.062   5.236  1.00  0.00     0.120 A 
HETATM    3  C   UNL     1      63.646   7.083   3.412  1.00  0.00     0.003 A 
HETATM    4  S   UNL     1      65.654   5.722   4.302  1.00  0.00    -0.088 SA
HETATM    5  C   UNL     1      64.449   5.993   3.123  1.00  0.00     0.065 A 
HETATM    6  C   UNL     1      63.386   8.796   5.291  1.00  0.00     0.102 C 
HETATM    7  N   UNL     1      62.822   9.703   5.744  1.00  0.00    -0.191 NA
ENDROOT
BRANCH   2   8
HETATM    8  S   UNL     1      66.107   7.415   6.686  1.00  0.00     0.179 S 
HETATM    9  O   UNL     1      66.497   8.804   6.563  1.00  0.00    -0.222 OA
HETATM   10  O   UNL     1      65.315   6.943   7.799  1.00  0.00    -0.222 OA
HETATM   11  C   UNL     1      67.540   6.382   6.549  1.00  0.00     0.167 C 
ENDBRANCH   2   8
BRANCH   3  12
HETATM   12  C   UNL     1      62.580   7.511   2.495  1.00  0.00    -0.024 A 
HETATM   13  C   UNL     1      61.530   6.635   2.174  1.00  0.00     0.012 A 
HETATM   14  C   UNL     1      60.540   7.000   1.260  1.00  0.00     0.001 A 
HETATM   15  C   UNL     1      60.558   8.263   0.682  1.00  0.00     0.000 A 
HETATM   16  C   UNL     1      61.568   9.163   1.018  1.00  0.00     0.001 A 
HETATM   17  C   UNL     1      62.577   8.788   1.912  1.00  0.00     0.012 A 
ENDBRANCH   3  12
TORSDOF 2
ENDMDL
MODEL 3
REMARK VINA RESULT:      -5.3      2.009      2.896
REMARK  2 active torsions:
REMARK  status: ('A' for Active; 'I' for Inactive)
REMARK    1  A    between atoms: C_2  and  S_3 
REMARK    2  A    between atoms: C_4  and  C_11 
ROOT
HETATM    1  C   UNL     1      64.726   6.761   6.028  1.00  0.00     0.084 A 
HETATM    2  C   UNL     1      65.941   6.285   6.488  1.00  0.00     0.120 A 
HETATM    3  C   UNL     1      64.851   8.004   5.302  1.00  0.00     0.003 A 
HETATM    4  S   UNL     1      67.237   7.284   5.981  1.00  0.00    -0.088 SA
HETATM    5  C   UNL     1      66.181   8.373   5.197  1.00  0.00     0.065 A 
HETATM    6  C   UNL     1      63.494   6.071   6.278  1.00  0.00     0.102 C 
HETATM    7  N   UNL     1      62.467   5.560   6.452  1.00  0.00    -0.191 NA
ENDROOT
BRANCH   2   8
HETATM    8  S   UNL     1      66.387   4.896   7.506  1.00  0.00     0.179 S 
HETATM    9  O   UNL     1      65.543   4.987   8.679  1.00  0.00    -0.222 OA
HETATM   10  O   UNL     1      66.345   3.749   6.626  1.00  0.00    -0.222 OA
HETATM   11  C   UNL     1      68.074   5.179   7.965  1.00  0.00     0.167 C 
ENDBRANCH   2   8
BRANCH   3  12
HETATM   12  C   UNL     1      63.780   8.838   4.734  1.00  0.00    -0.024 A 
HETATM   13  C   UNL     1      63.097   8.420   3.581  1.00  0.00     0.012 A 
HETATM   14  C   UNL     1      62.118   9.223   2.992  1.00  0.00     0.001 A 
HETATM   15  C   UNL     1      61.776  10.440   3.570  1.00  0.00     0.000 A 
HETATM   16  C   UNL     1      62.413  10.854   4.738  1.00  0.00     0.001 A 
HETATM   17  C   UNL     1      63.414  10.063   5.314  1.00  0.00     0.012 A 
ENDBRANCH   3  12
TORSDOF 2
ENDMDL
MODEL 4
REMARK VINA RESULT:      -5.2      2.871      3.572
REMARK  2 active torsions:
REMARK  status: ('A' for Active; 'I' for Inactive)
REMARK    1  A    between atoms: C_2  and  S_3 
REMARK    2  A    between atoms: C_4  and  C_11 
ROOT
HETATM    1  C   UNL     1      63.321   7.884   3.687  1.00  0.00     0.084 A 
HETATM    2  C   UNL     1      64.087   8.491   4.666  1.00  0.00     0.120 A 
HETATM    3  C   UNL     1      62.112   8.617   3.387  1.00  0.00     0.003 A 
HETATM    4  S   UNL     1      63.399   9.978   5.167  1.00  0.00    -0.088 SA
HETATM    5  C   UNL     1      62.061   9.789   4.123  1.00  0.00     0.065 A 
HETATM    6  C   UNL     1      63.713   6.651   3.069  1.00  0.00     0.102 C 
HETATM    7  N   UNL     1      63.976   5.653   2.537  1.00  0.00    -0.191 NA
ENDROOT
BRANCH   2   8
HETATM    8  S   UNL     1      65.583   8.011   5.500  1.00  0.00     0.179 S 
HETATM    9  O   UNL     1      66.479   7.553   4.457  1.00  0.00    -0.222 OA
HETATM   10  O   UNL     1      65.919   9.127   6.354  1.00  0.00    -0.222 OA
HETATM   11  C   UNL     1      65.124   6.645   6.529  1.00  0.00     0.167 C 
ENDBRANCH   2   8
BRANCH   3  12
HETATM   12  C   UNL     1      61.028   8.246   2.465  1.00  0.00    -0.024 A 
HETATM   13  C   UNL     1      59.843   7.677   2.961  1.00  0.00     0.012 A 
HETATM   14  C   UNL     1      58.826   7.264   2.098  1.00  0.00     0.001 A 
HETATM   15  C   UNL     1      58.958   7.450   0.727  1.00  0.00     0.000 A 
HETATM   16  C   UNL     1      60.108   8.049   0.218  1.00  0.00     0.001 A 
HETATM   17  C   UNL     1      61.141   8.438   1.079  1.00  0.00     0.012 A 
ENDBRANCH   3  12
TORSDOF 2
ENDMDL
MODEL 5
REMARK VINA RESULT:      -5.1      2.360      3.061
REMARK  2 active torsions:
REMARK  status: ('A' for Active; 'I' for Inactive)
REMARK    1  A    between atoms: C_2  and  S_3 
REMARK    2  A    between atoms: C_4  and  C_11 
ROOT
HETATM    1  C   UNL     1      62.395   6.688   4.590  1.00  0.00     0.084 A 
HETATM    2  C   UNL     1      63.143   5.795   5.336  1.00  0.00     0.120 A 
HETATM    3  C   UNL     1      63.107   7.913   4.303  1.00  0.00     0.003 A 
HETATM    4  S   UNL     1      64.725   6.389   5.621  1.00  0.00    -0.088 SA
HETATM    5  C   UNL     1      64.397   7.851   4.801  1.00  0.00     0.065 A 
HETATM    6  C   UNL     1      61.052   6.399   4.178  1.00  0.00     0.102 C 
HETATM    7  N   UNL     1      59.963   6.221   3.819  1.00  0.00    -0.191 NA
ENDROOT
BRANCH   2   8
HETATM    8  S   UNL     1      62.768   4.214   6.060  1.00  0.00     0.179 S 
HETATM    9  O   UNL     1      61.665   4.454   6.967  1.00  0.00    -0.222 OA
HETATM   10  O   UNL     1      62.651   3.302   4.945  1.00  0.00    -0.222 OA
HETATM   11  C   UNL     1      64.212   3.774   6.986  1.00  0.00     0.167 C 
ENDBRANCH   2   8
BRANCH   3  12
HETATM   12  C   UNL     1      62.613   9.110   3.607  1.00  0.00    -0.024 A 
HETATM   13  C   UNL     1      62.409   9.085   2.217  1.00  0.00     0.012 A 
HETATM   14  C   UNL     1      61.998  10.227   1.528  1.00  0.00     0.001 A 
HETATM   15  C   UNL     1      61.743  11.405   2.221  1.00  0.00     0.000 A 
HETATM   16  C   UNL     1      61.901  11.440   3.605  1.00  0.00     0.001 A 
HETATM   17  C   UNL     1      62.341  10.303   4.294  1.00  0.00     0.012 A 
ENDBRANCH   3  12
TORSDOF 2
ENDMDL
MODEL 6
REMARK VINA RESULT:      -5.0      3.631      5.852
REMARK  2 active torsions:
REMARK  status: ('A' for Active; 'I' for Inactive)
REMARK    1  A    between atoms: C_2  and  S_3 
REMARK    2  A    between atoms: C_4  and  C_11 
ROOT
HETATM    1  C   UNL     1      63.686   8.058   4.013  1.00  0.00     0.084 A 
HETATM    2  C   UNL     1      62.900   7.900   2.885  1.00  0.00     0.120 A 
HETATM    3  C   UNL     1      64.628   6.977   4.195  1.00  0.00     0.003 A 
HETATM    4  S   UNL     1      63.347   6.501   2.003  1.00  0.00    -0.088 SA
HETATM    5  C   UNL     1      64.545   6.079   3.144  1.00  0.00     0.065 A 
HETATM    6  C   UNL     1      63.541   9.183   4.891  1.00  0.00     0.102 C 
HETATM    7  N   UNL     1      63.466  10.068   5.638  1.00  0.00    -0.191 NA
ENDROOT
BRANCH   2   8
HETATM    8  S   UNL     1      61.535   8.828   2.224  1.00  0.00     0.179 S 
HETATM    9  O   UNL     1      60.409   8.530   3.085  1.00  0.00    -0.222 OA
HETATM   10  O   UNL     1      62.032  10.176   2.064  1.00  0.00    -0.222 OA
HETATM   11  C   UNL     1      61.247   8.149   0.614  1.00  0.00     0.167 C 
ENDBRANCH   2   8
BRANCH   3  12
HETATM   12  C   UNL     1      65.566   6.766   5.308  1.00  0.00    -0.024 A 
HETATM   13  C   UNL     1      65.082   6.571   6.612  1.00  0.00     0.012 A 
HETATM   14  C   UNL     1      65.955   6.427   7.691  1.00  0.00     0.001 A 
HETATM   15  C   UNL     1      67.329   6.434   7.481  1.00  0.00     0.000 A 
HETATM   16  C   UNL     1      67.830   6.586   6.189  1.00  0.00     0.001 A 
HETATM   17  C   UNL     1      66.956   6.759   5.110  1.00  0.00     0.012 A 
ENDBRANCH   3  12
TORSDOF 2
ENDMDL
MODEL 7
REMARK VINA RESULT:      -4.9      2.699      3.811
REMARK  2 active torsions:
REMARK  status: ('A' for Active; 'I' for Inactive)
REMARK    1  A    between atoms: C_2  and  S_3 
REMARK    2  A    between atoms: C_4  and  C_11 
ROOT
HETATM    1  C   UNL     1      61.138   6.689   4.813  1.00  0.00     0.084 A 
HETATM    2  C   UNL     1      61.589   5.716   5.687  1.00  0.00     0.120 A 
HETATM    3  C   UNL     1      62.182   7.597   4.397  1.00  0.00     0.003 A 
HETATM    4  S   UNL     1      63.278   5.842   5.945  1.00  0.00    -0.088 SA
HETATM    5  C   UNL     1      63.399   7.216   4.939  1.00  0.00     0.065 A 
HETATM    6  C   UNL     1      59.767   6.763   4.399  1.00  0.00     0.102 C 
HETATM    7  N   UNL     1      58.671   6.875   4.032  1.00  0.00    -0.191 NA
ENDROOT
BRANCH   2   8
HETATM    8  S   UNL     1      60.762   4.427   6.592  1.00  0.00     0.179 S 
HETATM    9  O   UNL     1      61.815   3.654   7.217  1.00  0.00    -0.222 OA
HETATM   10  O   UNL     1      59.746   5.098   7.371  1.00  0.00    -0.222 OA
HETATM   11  C   UNL     1      59.955   3.442   5.361  1.00  0.00     0.167 C 
ENDBRANCH   2   8
BRANCH   3  12
HETATM   12  C   UNL     1      62.066   8.787   3.541  1.00  0.00    -0.024 A 
HETATM   13  C   UNL     1      62.038   8.651   2.144  1.00  0.00     0.012 A 
HETATM   14  C   UNL     1      61.988   9.771   1.312  1.00  0.00     0.001 A 
HETATM   15  C   UNL     1      61.922  11.046   1.863  1.00  0.00     0.000 A 
HETATM   16  C   UNL     1      61.907  11.200   3.247  1.00  0.00     0.001 A 
HETATM   17  C   UNL     1      61.986  10.080   4.083  1.00  0.00     0.012 A 
ENDBRANCH   3  12
TORSDOF 2
ENDMDL
MODEL 8
REMARK VINA RESULT:      -4.7      4.440      5.906
REMARK  2 active torsions:
REMARK  status: ('A' for Active; 'I' for Inactive)
REMARK    1  A    between atoms: C_2  and  S_3 
REMARK    2  A    between atoms: C_4  and  C_11 
ROOT
HETATM    1  C   UNL     1      61.157   7.410   3.429  1.00  0.00     0.084 A 
HETATM    2  C   UNL     1      60.174   7.677   2.493  1.00  0.00     0.120 A 
HETATM    3  C   UNL     1      62.465   7.862   3.013  1.00  0.00     0.003 A 
HETATM    4  S   UNL     1      60.802   8.543   1.155  1.00  0.00    -0.088 SA
HETATM    5  C   UNL     1      62.386   8.515   1.794  1.00  0.00     0.065 A 
HETATM    6  C   UNL     1      60.872   6.738   4.664  1.00  0.00     0.102 C 
HETATM    7  N   UNL     1      60.701   6.196   5.676  1.00  0.00    -0.191 NA
ENDROOT
BRANCH   2   8
HETATM    8  S   UNL     1      58.444   7.271   2.409  1.00  0.00     0.179 S 
HETATM    9  O   UNL     1      57.885   7.686   3.678  1.00  0.00    -0.222 OA
HETATM   10  O   UNL     1      57.982   7.825   1.157  1.00  0.00    -0.222 OA
HETATM   11  C   UNL     1      58.388   5.505   2.286  1.00  0.00     0.167 C 
ENDBRANCH   2   8
BRANCH   3  12
HETATM   12  C   UNL     1      63.751   7.689   3.704  1.00  0.00    -0.024 A 
HETATM   13  C   UNL     1      64.140   8.589   4.709  1.00  0.00     0.012 A 
HETATM   14  C   UNL     1      65.382   8.477   5.336  1.00  0.00     0.001 A 
HETATM   15  C   UNL     1      66.241   7.438   5.000  1.00  0.00     0.000 A 
HETATM   16  C   UNL     1      65.857   6.509   4.034  1.00  0.00     0.001 A 
HETATM   17  C   UNL     1      64.624   6.637   3.384  1.00  0.00     0.012 A 
ENDBRANCH   3  12
TORSDOF 2
ENDMDL
MODEL 9
REMARK VINA RESULT:      -4.5      3.581      4.211
REMARK  2 active torsions:
REMARK  status: ('A' for Active; 'I' for Inactive)
REMARK    1  A    between atoms: C_2  and  S_3 
REMARK    2  A    between atoms: C_4  and  C_11 
ROOT
HETATM    1  C   UNL     1      61.686   7.328   4.368  1.00  0.00     0.084 A 
HETATM    2  C   UNL     1      62.791   8.085   4.711  1.00  0.00     0.120 A 
HETATM    3  C   UNL     1      60.700   8.081   3.627  1.00  0.00     0.003 A 
HETATM    4  S   UNL     1      62.685   9.672   4.076  1.00  0.00    -0.088 SA
HETATM    5  C   UNL     1      61.150   9.369   3.392  1.00  0.00     0.065 A 
HETATM    6  C   UNL     1      61.562   5.948   4.740  1.00  0.00     0.102 C 
HETATM    7  N   UNL     1      61.405   4.832   5.016  1.00  0.00    -0.191 NA
ENDROOT
BRANCH   2   8
HETATM    8  S   UNL     1      64.237   7.738   5.689  1.00  0.00     0.179 S 
HETATM    9  O   UNL     1      65.044   8.938   5.627  1.00  0.00    -0.222 OA
HETATM   10  O   UNL     1      63.735   7.223   6.942  1.00  0.00    -0.222 OA
HETATM   11  C   UNL     1      65.065   6.422   4.841  1.00  0.00     0.167 C 
ENDBRANCH   2   8
BRANCH   3  12
HETATM   12  C   UNL     1      59.377   7.637   3.161  1.00  0.00    -0.024 A 
HETATM   13  C   UNL     1      58.326   7.469   4.077  1.00  0.00     0.012 A 
HETATM   14  C   UNL     1      57.080   6.992   3.666  1.00  0.00     0.001 A 
HETATM   15  C   UNL     1      56.850   6.715   2.323  1.00  0.00     0.000 A 
HETATM   16  C   UNL     1      57.867   6.914   1.392  1.00  0.00     0.001 A 
HETATM   17  C   UNL     1      59.125   7.364   1.808  1.00  0.00     0.012 A 
ENDBRANCH   3  12
TORSDOF 2
ENDMDL
