MODEL 1
REMARK VINA RESULT:      -5.8      0.000      0.000
REMARK  4 active torsions:
REMARK  status: ('A' for Active; 'I' for Inactive)
REMARK    1  A    between atoms: C_1  and  S_5 
REMARK    2  A    between atoms: C_2  and  C_4 
REMARK    3  A    between atoms: S_5  and  C_13 
REMARK    4  A    between atoms: C_12  and  C_13 
ROOT
HETATM    1  C   UNL     1      62.012   9.900   2.591  1.00  0.00     0.041 A 
HETATM    2  C   UNL     1      62.121   8.919   3.593  1.00  0.00     0.026 A 
HETATM    3  C   UNL     1      62.289   7.561   3.270  1.00  0.00    -0.048 A 
HETATM    4  C   UNL     1      62.061   9.529   1.245  1.00  0.00     0.018 A 
HETATM    5  C   UNL     1      62.216   8.188   0.904  1.00  0.00     0.002 A 
HETATM    6  C   UNL     1      62.335   7.218   1.906  1.00  0.00     0.008 A 
ENDROOT
BRANCH   3   7
HETATM    7  C   UNL     1      62.546   6.473   4.305  1.00  0.00     0.118 C 
BRANCH   7   8
HETATM    8  S   UNL     1      62.817   7.049   6.006  1.00  0.00    -0.118 SA
BRANCH   8   9
HETATM    9  C   UNL     1      64.569   7.176   6.128  1.00  0.00     0.041 A 
HETATM   10  S   UNL     1      65.502   6.324   7.282  1.00  0.00    -0.095 SA
HETATM   11  C   UNL     1      66.924   7.184   6.872  1.00  0.00     0.051 A 
HETATM   12  C   UNL     1      66.708   8.074   5.844  1.00  0.00     0.009 A 
HETATM   13  C   UNL     1      65.351   8.051   5.400  1.00  0.00     0.026 A 
ENDBRANCH   8   9
ENDBRANCH   7   8
ENDBRANCH   3   7
BRANCH   1  14
HETATM   14  C   UNL     1      61.885  11.317   3.006  1.00  0.00     0.209 C 
HETATM   15  O   UNL     1      61.807  11.729   4.147  1.00  0.00    -0.644 OA
HETATM   16  O   UNL     1      61.880  12.170   1.961  1.00  0.00    -0.644 OA
ENDBRANCH   1  14
TORSDOF 4
ENDMDL
MODEL 2
REMARK VINA RESULT:      -5.4      1.880      2.914
REMARK  4 active torsions:
REMARK  status: ('A' for Active; 'I' for Inactive)
REMARK    1  A    between atoms: C_1  and  S_5 
REMARK    2  A    between atoms: C_2  and  C_4 
REMARK    3  A    between atoms: S_5  and  C_13 
REMARK    4  A    between atoms: C_12  and  C_13 
ROOT
HETATM    1  C   UNL     1      62.891   9.570   4.214  1.00  0.00     0.041 A 
HETATM    2  C   UNL     1      63.940   8.893   4.862  1.00  0.00     0.026 A 
HETATM    3  C   UNL     1      64.405   7.650   4.396  1.00  0.00    -0.048 A 
HETATM    4  C   UNL     1      62.284   9.002   3.092  1.00  0.00     0.018 A 
HETATM    5  C   UNL     1      62.721   7.767   2.621  1.00  0.00     0.002 A 
HETATM    6  C   UNL     1      63.774   7.103   3.263  1.00  0.00     0.008 A 
ENDROOT
BRANCH   3   7
HETATM    7  C   UNL     1      65.620   6.935   4.971  1.00  0.00     0.118 C 
BRANCH   7   8
HETATM    8  S   UNL     1      66.433   7.758   6.371  1.00  0.00    -0.118 SA
BRANCH   8   9
HETATM    9  C   UNL     1      67.211   6.436   7.236  1.00  0.00     0.041 A 
HETATM   10  S   UNL     1      67.698   4.975   6.493  1.00  0.00    -0.095 SA
HETATM   11  C   UNL     1      68.073   4.252   7.998  1.00  0.00     0.051 A 
HETATM   12  C   UNL     1      67.875   5.119   9.049  1.00  0.00     0.009 A 
HETATM   13  C   UNL     1      67.399   6.390   8.604  1.00  0.00     0.026 A 
ENDBRANCH   8   9
ENDBRANCH   7   8
ENDBRANCH   3   7
BRANCH   1  14
HETATM   14  C   UNL     1      62.486  10.897   4.733  1.00  0.00     0.209 C 
HETATM   15  O   UNL     1      61.849  11.742   4.135  1.00  0.00    -0.644 OA
HETATM   16  O   UNL     1      62.885  11.105   6.005  1.00  0.00    -0.644 OA
ENDBRANCH   1  14
TORSDOF 4
ENDMDL
MODEL 3
REMARK VINA RESULT:      -5.1      3.140      4.926
REMARK  4 active torsions:
REMARK  status: ('A' for Active; 'I' for Inactive)
REMARK    1  A    between atoms: C_1  and  S_5 
REMARK    2  A    between atoms: C_2  and  C_4 
REMARK    3  A    between atoms: S_5  and  C_13 
REMARK    4  A    between atoms: C_12  and  C_13 
ROOT
HETATM    1  C   UNL     1      62.523  10.028   4.064  1.00  0.00     0.041 A 
HETATM    2  C   UNL     1      62.646   8.766   3.454  1.00  0.00     0.026 A 
HETATM    3  C   UNL     1      62.330   8.577   2.097  1.00  0.00    -0.048 A 
HETATM    4  C   UNL     1      62.069  11.119   3.319  1.00  0.00     0.018 A 
HETATM    5  C   UNL     1      61.739  10.951   1.977  1.00  0.00     0.002 A 
HETATM    6  C   UNL     1      61.875   9.695   1.373  1.00  0.00     0.008 A 
ENDROOT
BRANCH   3   7
HETATM    7  C   UNL     1      62.568   7.272   1.350  1.00  0.00     0.118 C 
BRANCH   7   8
HETATM    8  S   UNL     1      61.088   6.281   0.997  1.00  0.00    -0.118 SA
BRANCH   8   9
HETATM    9  C   UNL     1      60.030   6.608   2.367  1.00  0.00     0.041 A 
HETATM   10  S   UNL     1      60.172   5.824   3.880  1.00  0.00    -0.095 SA
HETATM   11  C   UNL     1      58.710   6.508   4.450  1.00  0.00     0.051 A 
HETATM   12  C   UNL     1      58.143   7.354   3.524  1.00  0.00     0.009 A 
HETATM   13  C   UNL     1      58.921   7.429   2.329  1.00  0.00     0.026 A 
ENDBRANCH   8   9
ENDBRANCH   7   8
ENDBRANCH   3   7
BRANCH   1  14
HETATM   14  C   UNL     1      62.920  10.163   5.485  1.00  0.00     0.209 C 
HETATM   15  O   UNL     1      63.109  11.203   6.085  1.00  0.00    -0.644 OA
HETATM   16  O   UNL     1      63.046   8.973   6.108  1.00  0.00    -0.644 OA
ENDBRANCH   1  14
TORSDOF 4
ENDMDL
MODEL 4
REMARK VINA RESULT:      -5.1      4.077      6.846
REMARK  4 active torsions:
REMARK  status: ('A' for Active; 'I' for Inactive)
REMARK    1  A    between atoms: C_1  and  S_5 
REMARK    2  A    between atoms: C_2  and  C_4 
REMARK    3  A    between atoms: S_5  and  C_13 
REMARK    4  A    between atoms: C_12  and  C_13 
ROOT
HETATM    1  C   UNL     1      66.946   6.136   7.097  1.00  0.00     0.041 A 
HETATM    2  C   UNL     1      66.081   7.223   6.868  1.00  0.00     0.026 A 
HETATM    3  C   UNL     1      65.820   7.686   5.567  1.00  0.00    -0.048 A 
HETATM    4  C   UNL     1      67.570   5.504   6.019  1.00  0.00     0.018 A 
HETATM    5  C   UNL     1      67.334   5.955   4.723  1.00  0.00     0.002 A 
HETATM    6  C   UNL     1      66.463   7.029   4.501  1.00  0.00     0.008 A 
ENDROOT
BRANCH   3   7
HETATM    7  C   UNL     1      64.795   8.765   5.245  1.00  0.00     0.118 C 
BRANCH   7   8
HETATM    8  S   UNL     1      63.088   8.191   5.013  1.00  0.00    -0.118 SA
BRANCH   8   9
HETATM    9  C   UNL     1      62.448   9.276   3.782  1.00  0.00     0.041 A 
HETATM   10  S   UNL     1      62.276   8.843   2.136  1.00  0.00    -0.095 SA
HETATM   11  C   UNL     1      61.872  10.443   1.684  1.00  0.00     0.051 A 
HETATM   12  C   UNL     1      61.824  11.288   2.771  1.00  0.00     0.009 A 
HETATM   13  C   UNL     1      62.134  10.605   3.986  1.00  0.00     0.026 A 
ENDBRANCH   8   9
ENDBRANCH   7   8
ENDBRANCH   3   7
BRANCH   1  14
HETATM   14  C   UNL     1      67.136   5.673   8.491  1.00  0.00     0.209 C 
HETATM   15  O   UNL     1      67.769   6.241   9.360  1.00  0.00    -0.644 OA
HETATM   16  O   UNL     1      66.500   4.511   8.748  1.00  0.00    -0.644 OA
ENDBRANCH   1  14
TORSDOF 4
ENDMDL
MODEL 5
REMARK VINA RESULT:      -5.1      2.042      3.106
REMARK  4 active torsions:
REMARK  status: ('A' for Active; 'I' for Inactive)
REMARK    1  A    between atoms: C_1  and  S_5 
REMARK    2  A    between atoms: C_2  and  C_4 
REMARK    3  A    between atoms: S_5  and  C_13 
REMARK    4  A    between atoms: C_12  and  C_13 
ROOT
HETATM    1  C   UNL     1      62.238   9.383   2.614  1.00  0.00     0.041 A 
HETATM    2  C   UNL     1      63.002   8.480   3.375  1.00  0.00     0.026 A 
HETATM    3  C   UNL     1      63.436   8.804   4.673  1.00  0.00    -0.048 A 
HETATM    4  C   UNL     1      61.908  10.633   3.142  1.00  0.00     0.018 A 
HETATM    5  C   UNL     1      62.338  10.978   4.421  1.00  0.00     0.002 A 
HETATM    6  C   UNL     1      63.087  10.070   5.178  1.00  0.00     0.008 A 
ENDROOT
BRANCH   3   7
HETATM    7  C   UNL     1      64.149   7.822   5.593  1.00  0.00     0.118 C 
BRANCH   7   8
HETATM    8  S   UNL     1      65.964   7.876   5.554  1.00  0.00    -0.118 SA
BRANCH   8   9
HETATM    9  C   UNL     1      66.442   6.722   6.795  1.00  0.00     0.041 A 
HETATM   10  S   UNL     1      66.410   5.026   6.574  1.00  0.00    -0.095 SA
HETATM   11  C   UNL     1      66.747   4.732   8.225  1.00  0.00     0.051 A 
HETATM   12  C   UNL     1      66.926   5.902   8.929  1.00  0.00     0.009 A 
HETATM   13  C   UNL     1      66.771   7.051   8.095  1.00  0.00     0.026 A 
ENDBRANCH   8   9
ENDBRANCH   7   8
ENDBRANCH   3   7
BRANCH   1  14
HETATM   14  C   UNL     1      61.775   8.955   1.273  1.00  0.00     0.209 C 
HETATM   15  O   UNL     1      62.453   8.876   0.267  1.00  0.00    -0.644 OA
HETATM   16  O   UNL     1      60.469   8.618   1.254  1.00  0.00    -0.644 OA
ENDBRANCH   1  14
TORSDOF 4
ENDMDL
MODEL 6
REMARK VINA RESULT:      -4.9      4.223      6.112
REMARK  4 active torsions:
REMARK  status: ('A' for Active; 'I' for Inactive)
REMARK    1  A    between atoms: C_1  and  S_5 
REMARK    2  A    between atoms: C_2  and  C_4 
REMARK    3  A    between atoms: S_5  and  C_13 
REMARK    4  A    between atoms: C_12  and  C_13 
ROOT
HETATM    1  C   UNL     1      59.102   6.063   7.402  1.00  0.00     0.041 A 
HETATM    2  C   UNL     1      60.460   6.120   7.037  1.00  0.00     0.026 A 
HETATM    3  C   UNL     1      60.850   6.243   5.692  1.00  0.00    -0.048 A 
HETATM    4  C   UNL     1      58.114   6.119   6.417  1.00  0.00     0.018 A 
HETATM    5  C   UNL     1      58.479   6.229   5.078  1.00  0.00     0.002 A 
HETATM    6  C   UNL     1      59.832   6.297   4.722  1.00  0.00     0.008 A 
ENDROOT
BRANCH   3   7
HETATM    7  C   UNL     1      62.292   6.443   5.247  1.00  0.00     0.118 C 
BRANCH   7   8
HETATM    8  S   UNL     1      62.962   8.118   5.464  1.00  0.00    -0.118 SA
BRANCH   8   9
HETATM    9  C   UNL     1      62.421   8.973   4.023  1.00  0.00     0.041 A 
HETATM   10  S   UNL     1      62.410   8.280   2.459  1.00  0.00    -0.095 SA
HETATM   11  C   UNL     1      62.024   9.775   1.722  1.00  0.00     0.051 A 
HETATM   12  C   UNL     1      61.862  10.779   2.650  1.00  0.00     0.009 A 
HETATM   13  C   UNL     1      62.069  10.307   3.982  1.00  0.00     0.026 A 
ENDBRANCH   8   9
ENDBRANCH   7   8
ENDBRANCH   3   7
BRANCH   1  14
HETATM   14  C   UNL     1      58.766   5.982   8.843  1.00  0.00     0.209 C 
HETATM   15  O   UNL     1      58.840   4.993   9.546  1.00  0.00    -0.644 OA
HETATM   16  O   UNL     1      58.364   7.164   9.354  1.00  0.00    -0.644 OA
ENDBRANCH   1  14
TORSDOF 4
ENDMDL
MODEL 7
REMARK VINA RESULT:      -4.8      2.861      4.973
REMARK  4 active torsions:
REMARK  status: ('A' for Active; 'I' for Inactive)
REMARK    1  A    between atoms: C_1  and  S_5 
REMARK    2  A    between atoms: C_2  and  C_4 
REMARK    3  A    between atoms: S_5  and  C_13 
REMARK    4  A    between atoms: C_12  and  C_13 
ROOT
HETATM    1  C   UNL     1      62.251   9.988   3.568  1.00  0.00     0.041 A 
HETATM    2  C   UNL     1      61.926   9.043   2.577  1.00  0.00     0.026 A 
HETATM    3  C   UNL     1      62.125   7.667   2.788  1.00  0.00    -0.048 A 
HETATM    4  C   UNL     1      62.793   9.564   4.783  1.00  0.00     0.018 A 
HETATM    5  C   UNL     1      63.008   8.206   5.007  1.00  0.00     0.002 A 
HETATM    6  C   UNL     1      62.672   7.270   4.023  1.00  0.00     0.008 A 
ENDROOT
BRANCH   3   7
HETATM    7  C   UNL     1      61.671   6.590   1.812  1.00  0.00     0.118 C 
BRANCH   7   8
HETATM    8  S   UNL     1      59.897   6.574   1.422  1.00  0.00    -0.118 SA
BRANCH   8   9
HETATM    9  C   UNL     1      59.122   6.609   3.003  1.00  0.00     0.041 A 
HETATM   10  S   UNL     1      59.158   5.301   4.104  1.00  0.00    -0.095 SA
HETATM   11  C   UNL     1      58.034   6.058   5.149  1.00  0.00     0.051 A 
HETATM   12  C   UNL     1      57.669   7.305   4.695  1.00  0.00     0.009 A 
HETATM   13  C   UNL     1      58.317   7.632   3.465  1.00  0.00     0.026 A 
ENDBRANCH   8   9
ENDBRANCH   7   8
ENDBRANCH   3   7
BRANCH   1  14
HETATM   14  C   UNL     1      61.970  11.417   3.294  1.00  0.00     0.209 C 
HETATM   15  O   UNL     1      61.856  11.932   2.200  1.00  0.00    -0.644 OA
HETATM   16  O   UNL     1      61.819  12.145   4.420  1.00  0.00    -0.644 OA
ENDBRANCH   1  14
TORSDOF 4
ENDMDL
MODEL 8
REMARK VINA RESULT:      -4.8      3.696      4.314
REMARK  4 active torsions:
REMARK  status: ('A' for Active; 'I' for Inactive)
REMARK    1  A    between atoms: C_1  and  S_5 
REMARK    2  A    between atoms: C_2  and  C_4 
REMARK    3  A    between atoms: S_5  and  C_13 
REMARK    4  A    between atoms: C_12  and  C_13 
ROOT
HETATM    1  C   UNL     1      61.762   9.714   3.124  1.00  0.00     0.041 A 
HETATM    2  C   UNL     1      61.020   8.575   3.488  1.00  0.00     0.026 A 
HETATM    3  C   UNL     1      60.657   7.606   2.537  1.00  0.00    -0.048 A 
HETATM    4  C   UNL     1      62.140   9.901   1.793  1.00  0.00     0.018 A 
HETATM    5  C   UNL     1      61.781   8.959   0.833  1.00  0.00     0.002 A 
HETATM    6  C   UNL     1      61.053   7.822   1.203  1.00  0.00     0.008 A 
ENDROOT
BRANCH   3   7
HETATM    7  C   UNL     1      59.973   6.292   2.890  1.00  0.00     0.118 C 
BRANCH   7   8
HETATM    8  S   UNL     1      58.416   6.434   3.814  1.00  0.00    -0.118 SA
BRANCH   8   9
HETATM    9  C   UNL     1      58.884   6.088   5.476  1.00  0.00     0.041 A 
HETATM   10  S   UNL     1      57.802   6.157   6.799  1.00  0.00    -0.095 SA
HETATM   11  C   UNL     1      59.065   5.955   7.935  1.00  0.00     0.051 A 
HETATM   12  C   UNL     1      60.287   5.793   7.322  1.00  0.00     0.009 A 
HETATM   13  C   UNL     1      60.177   5.847   5.899  1.00  0.00     0.026 A 
ENDBRANCH   8   9
ENDBRANCH   7   8
ENDBRANCH   3   7
BRANCH   1  14
HETATM   14  C   UNL     1      62.150  10.668   4.188  1.00  0.00     0.209 C 
HETATM   15  O   UNL     1      61.875  11.852   4.231  1.00  0.00    -0.644 OA
HETATM   16  O   UNL     1      62.859  10.088   5.178  1.00  0.00    -0.644 OA
ENDBRANCH   1  14
TORSDOF 4
ENDMDL
MODEL 9
REMARK VINA RESULT:      -4.7      2.323      2.954
REMARK  4 active torsions:
REMARK  status: ('A' for Active; 'I' for Inactive)
REMARK    1  A    between atoms: C_1  and  S_5 
REMARK    2  A    between atoms: C_2  and  C_4 
REMARK    3  A    between atoms: S_5  and  C_13 
REMARK    4  A    between atoms: C_12  and  C_13 
ROOT
HETATM    1  C   UNL     1      62.160   8.246   1.722  1.00  0.00     0.041 A 
HETATM    2  C   UNL     1      62.596   8.097   3.052  1.00  0.00     0.026 A 
HETATM    3  C   UNL     1      62.614   9.187   3.940  1.00  0.00    -0.048 A 
HETATM    4  C   UNL     1      61.746   9.498   1.261  1.00  0.00     0.018 A 
HETATM    5  C   UNL     1      61.767  10.593   2.121  1.00  0.00     0.002 A 
HETATM    6  C   UNL     1      62.191  10.436   3.446  1.00  0.00     0.008 A 
ENDROOT
BRANCH   3   7
HETATM    7  C   UNL     1      62.946   9.063   5.420  1.00  0.00     0.118 C 
BRANCH   7   8
HETATM    8  S   UNL     1      63.177   7.371   6.040  1.00  0.00    -0.118 SA
BRANCH   8   9
HETATM    9  C   UNL     1      64.925   7.163   6.041  1.00  0.00     0.041 A 
HETATM   10  S   UNL     1      65.790   6.423   7.319  1.00  0.00    -0.095 SA
HETATM   11  C   UNL     1      67.300   6.859   6.644  1.00  0.00     0.051 A 
HETATM   12  C   UNL     1      67.156   7.518   5.444  1.00  0.00     0.009 A 
HETATM   13  C   UNL     1      65.782   7.672   5.085  1.00  0.00     0.026 A 
ENDBRANCH   8   9
ENDBRANCH   7   8
ENDBRANCH   3   7
BRANCH   1  14
HETATM   14  C   UNL     1      62.122   7.044   0.857  1.00  0.00     0.209 C 
HETATM   15  O   UNL     1      61.175   6.657   0.201  1.00  0.00    -0.644 OA
HETATM   16  O   UNL     1      63.295   6.378   0.836  1.00  0.00    -0.644 OA
ENDBRANCH   1  14
TORSDOF 4
ENDMDL
