MODEL 1
REMARK VINA RESULT:      -5.8      0.000      0.000
REMARK  2 active torsions:
REMARK  status: ('A' for Active; 'I' for Inactive)
REMARK    1  A    between atoms: S_1  and  C_2 
REMARK    2  A    between atoms: S_1  and  C_4 
ROOT
HETATM    1  S   UNL     1      63.327   7.171   5.673  1.00  0.00     0.207 S 
HETATM    2  O   UNL     1      62.958   7.461   7.038  1.00  0.00    -0.217 OA
HETATM    3  O   UNL     1      62.909   5.944   5.010  1.00  0.00    -0.217 OA
ENDROOT
BRANCH   1   4
HETATM    4  C   UNL     1      65.072   7.105   5.650  1.00  0.00     0.077 A 
HETATM    5  C   UNL     1      65.900   6.163   6.370  1.00  0.00    -0.033 A 
HETATM    6  C   UNL     1      67.240   6.388   6.102  1.00  0.00     0.057 A 
HETATM    7  C   UNL     1      65.421   5.074   7.274  1.00  0.00     0.050 C 
HETATM    8  S   UNL     1      67.502   7.688   5.026  1.00  0.00    -0.112 SA
HETATM    9  C   UNL     1      65.826   7.972   4.881  1.00  0.00     0.073 A 
ENDBRANCH   1   4
BRANCH   1  10
HETATM   10  C   UNL     1      62.859   8.537   4.642  1.00  0.00     0.064 A 
HETATM   11  C   UNL     1      62.585   8.286   3.293  1.00  0.00     0.025 A 
HETATM   12  C   UNL     1      62.210   9.333   2.452  1.00  0.00     0.025 A 
HETATM   13  C   UNL     1      62.093  10.623   2.965  1.00  0.00     0.034 A 
HETATM   14  C   UNL     1      62.333  10.873   4.319  1.00  0.00     0.025 A 
HETATM   15 CL   UNL     1      61.662  11.918   1.919  1.00  0.00    -0.084 Cl
HETATM   16  C   UNL     1      62.710   9.826   5.169  1.00  0.00     0.025 A 
ENDBRANCH   1  10
TORSDOF 2
ENDMDL
MODEL 2
REMARK VINA RESULT:      -5.2      1.945      2.802
REMARK  2 active torsions:
REMARK  status: ('A' for Active; 'I' for Inactive)
REMARK    1  A    between atoms: S_1  and  C_2 
REMARK    2  A    between atoms: S_1  and  C_4 
ROOT
HETATM    1  S   UNL     1      64.543   7.930   5.906  1.00  0.00     0.207 S 
HETATM    2  O   UNL     1      65.372   9.103   6.047  1.00  0.00    -0.217 OA
HETATM    3  O   UNL     1      63.552   7.566   6.908  1.00  0.00    -0.217 OA
ENDROOT
BRANCH   1   4
HETATM    4  C   UNL     1      65.637   6.570   5.863  1.00  0.00     0.077 A 
HETATM    5  C   UNL     1      66.954   6.553   5.265  1.00  0.00    -0.033 A 
HETATM    6  C   UNL     1      67.550   5.314   5.436  1.00  0.00     0.057 A 
HETATM    7  C   UNL     1      67.624   7.691   4.566  1.00  0.00     0.050 C 
HETATM    8  S   UNL     1      66.566   4.204   6.280  1.00  0.00    -0.112 SA
HETATM    9  C   UNL     1      65.323   5.359   6.452  1.00  0.00     0.073 A 
ENDBRANCH   1   4
BRANCH   1  10
HETATM   10  C   UNL     1      63.734   7.978   4.327  1.00  0.00     0.064 A 
HETATM   11  C   UNL     1      62.985   9.115   4.001  1.00  0.00     0.025 A 
HETATM   12  C   UNL     1      62.339   9.191   2.768  1.00  0.00     0.025 A 
HETATM   13  C   UNL     1      62.457   8.142   1.859  1.00  0.00     0.034 A 
HETATM   14  C   UNL     1      63.232   7.021   2.167  1.00  0.00     0.025 A 
HETATM   15 CL   UNL     1      61.632   8.226   0.352  1.00  0.00    -0.084 Cl
HETATM   16  C   UNL     1      63.883   6.937   3.404  1.00  0.00     0.025 A 
ENDBRANCH   1  10
TORSDOF 2
ENDMDL
MODEL 3
REMARK VINA RESULT:      -5.1      1.606      1.992
REMARK  2 active torsions:
REMARK  status: ('A' for Active; 'I' for Inactive)
REMARK    1  A    between atoms: S_1  and  C_2 
REMARK    2  A    between atoms: S_1  and  C_4 
ROOT
HETATM    1  S   UNL     1      63.790   6.609   6.042  1.00  0.00     0.207 S 
HETATM    2  O   UNL     1      64.370   7.245   7.200  1.00  0.00    -0.217 OA
HETATM    3  O   UNL     1      62.733   5.615   6.160  1.00  0.00    -0.217 OA
ENDROOT
BRANCH   1   4
HETATM    4  C   UNL     1      65.098   5.760   5.255  1.00  0.00     0.077 A 
HETATM    5  C   UNL     1      66.349   6.337   4.817  1.00  0.00    -0.033 A 
HETATM    6  C   UNL     1      67.163   5.368   4.254  1.00  0.00     0.057 A 
HETATM    7  C   UNL     1      66.758   7.769   4.949  1.00  0.00     0.050 C 
HETATM    8  S   UNL     1      66.452   3.816   4.243  1.00  0.00    -0.112 SA
HETATM    9  C   UNL     1      65.043   4.400   5.007  1.00  0.00     0.073 A 
ENDBRANCH   1   4
BRANCH   1  10
HETATM   10  C   UNL     1      63.243   7.858   4.906  1.00  0.00     0.064 A 
HETATM   11  C   UNL     1      63.109   7.513   3.556  1.00  0.00     0.025 A 
HETATM   12  C   UNL     1      62.678   8.466   2.635  1.00  0.00     0.025 A 
HETATM   13  C   UNL     1      62.365   9.753   3.067  1.00  0.00     0.034 A 
HETATM   14  C   UNL     1      62.465  10.092   4.419  1.00  0.00     0.025 A 
HETATM   15 CL   UNL     1      61.864  10.935   1.922  1.00  0.00    -0.084 Cl
HETATM   16  C   UNL     1      62.898   9.140   5.349  1.00  0.00     0.025 A 
ENDBRANCH   1  10
TORSDOF 2
ENDMDL
MODEL 4
REMARK VINA RESULT:      -5.0      3.230      5.830
REMARK  2 active torsions:
REMARK  status: ('A' for Active; 'I' for Inactive)
REMARK    1  A    between atoms: S_1  and  C_2 
REMARK    2  A    between atoms: S_1  and  C_4 
ROOT
HETATM    1  S   UNL     1      64.004   8.296   5.659  1.00  0.00     0.207 S 
HETATM    2  O   UNL     1      62.932   8.106   6.607  1.00  0.00    -0.217 OA
HETATM    3  O   UNL     1      64.791   9.520   5.623  1.00  0.00    -0.217 OA
ENDROOT
BRANCH   1   4
HETATM    4  C   UNL     1      63.269   8.206   4.077  1.00  0.00     0.077 A 
HETATM    5  C   UNL     1      62.472   9.235   3.447  1.00  0.00    -0.033 A 
HETATM    6  C   UNL     1      62.069   8.833   2.183  1.00  0.00     0.057 A 
HETATM    7  C   UNL     1      62.122  10.565   4.031  1.00  0.00     0.050 C 
HETATM    8  S   UNL     1      62.621   7.273   1.765  1.00  0.00    -0.112 SA
HETATM    9  C   UNL     1      63.427   7.102   3.258  1.00  0.00     0.073 A 
ENDBRANCH   1   4
BRANCH   1  10
HETATM   10  C   UNL     1      65.127   6.926   5.772  1.00  0.00     0.064 A 
HETATM   11  C   UNL     1      66.407   7.072   5.223  1.00  0.00     0.025 A 
HETATM   12  C   UNL     1      67.319   6.020   5.297  1.00  0.00     0.025 A 
HETATM   13  C   UNL     1      66.956   4.834   5.932  1.00  0.00     0.034 A 
HETATM   14  C   UNL     1      65.692   4.697   6.512  1.00  0.00     0.025 A 
HETATM   15 CL   UNL     1      68.073   3.527   5.993  1.00  0.00    -0.084 Cl
HETATM   16  C   UNL     1      64.772   5.750   6.441  1.00  0.00     0.025 A 
ENDBRANCH   1  10
TORSDOF 2
ENDMDL
MODEL 5
REMARK VINA RESULT:      -4.8      2.778      4.116
REMARK  2 active torsions:
REMARK  status: ('A' for Active; 'I' for Inactive)
REMARK    1  A    between atoms: S_1  and  C_2 
REMARK    2  A    between atoms: S_1  and  C_4 
ROOT
HETATM    1  S   UNL     1      63.028   6.862   4.181  1.00  0.00     0.207 S 
HETATM    2  O   UNL     1      63.191   5.955   3.070  1.00  0.00    -0.217 OA
HETATM    3  O   UNL     1      64.063   7.033   5.192  1.00  0.00    -0.217 OA
ENDROOT
BRANCH   1   4
HETATM    4  C   UNL     1      61.641   6.286   5.073  1.00  0.00     0.077 A 
HETATM    5  C   UNL     1      60.331   6.011   4.528  1.00  0.00    -0.033 A 
HETATM    6  C   UNL     1      59.479   5.547   5.517  1.00  0.00     0.057 A 
HETATM    7  C   UNL     1      59.913   6.172   3.102  1.00  0.00     0.050 C 
HETATM    8  S   UNL     1      60.220   5.449   7.052  1.00  0.00    -0.112 SA
HETATM    9  C   UNL     1      61.705   6.010   6.427  1.00  0.00     0.073 A 
ENDBRANCH   1   4
BRANCH   1  10
HETATM   10  C   UNL     1      62.599   8.469   3.561  1.00  0.00     0.064 A 
HETATM   11  C   UNL     1      62.353   8.605   2.190  1.00  0.00     0.025 A 
HETATM   12  C   UNL     1      62.008   9.850   1.666  1.00  0.00     0.025 A 
HETATM   13  C   UNL     1      61.893  10.949   2.514  1.00  0.00     0.034 A 
HETATM   14  C   UNL     1      62.104  10.810   3.888  1.00  0.00     0.025 A 
HETATM   15 CL   UNL     1      61.499  12.490   1.860  1.00  0.00    -0.084 Cl
HETATM   16  C   UNL     1      62.451   9.563   4.421  1.00  0.00     0.025 A 
ENDBRANCH   1  10
TORSDOF 2
ENDMDL
MODEL 6
REMARK VINA RESULT:      -4.8      1.929      2.596
REMARK  2 active torsions:
REMARK  status: ('A' for Active; 'I' for Inactive)
REMARK    1  A    between atoms: S_1  and  C_2 
REMARK    2  A    between atoms: S_1  and  C_4 
ROOT
HETATM    1  S   UNL     1      64.844   7.637   5.972  1.00  0.00     0.207 S 
HETATM    2  O   UNL     1      65.917   8.598   6.053  1.00  0.00    -0.217 OA
HETATM    3  O   UNL     1      63.899   7.446   7.062  1.00  0.00    -0.217 OA
ENDROOT
BRANCH   1   4
HETATM    4  C   UNL     1      65.608   6.078   5.782  1.00  0.00     0.077 A 
HETATM    5  C   UNL     1      64.957   4.791   5.880  1.00  0.00    -0.033 A 
HETATM    6  C   UNL     1      65.863   3.767   5.652  1.00  0.00     0.057 A 
HETATM    7  C   UNL     1      63.511   4.550   6.168  1.00  0.00     0.050 C 
HETATM    8  S   UNL     1      67.445   4.327   5.335  1.00  0.00    -0.112 SA
HETATM    9  C   UNL     1      66.953   5.954   5.480  1.00  0.00     0.073 A 
ENDBRANCH   1   4
BRANCH   1  10
HETATM   10  C   UNL     1      63.916   7.928   4.487  1.00  0.00     0.064 A 
HETATM   11  C   UNL     1      63.163   9.104   4.397  1.00  0.00     0.025 A 
HETATM   12  C   UNL     1      62.424   9.370   3.245  1.00  0.00     0.025 A 
HETATM   13  C   UNL     1      62.454   8.470   2.181  1.00  0.00     0.034 A 
HETATM   14  C   UNL     1      63.232   7.311   2.254  1.00  0.00     0.025 A 
HETATM   15 CL   UNL     1      61.516   8.786   0.775  1.00  0.00    -0.084 Cl
HETATM   16  C   UNL     1      63.975   7.038   3.408  1.00  0.00     0.025 A 
ENDBRANCH   1  10
TORSDOF 2
ENDMDL
MODEL 7
REMARK VINA RESULT:      -4.8      2.714      3.690
REMARK  2 active torsions:
REMARK  status: ('A' for Active; 'I' for Inactive)
REMARK    1  A    between atoms: S_1  and  C_2 
REMARK    2  A    between atoms: S_1  and  C_4 
ROOT
HETATM    1  S   UNL     1      66.554   7.591   6.104  1.00  0.00     0.207 S 
HETATM    2  O   UNL     1      67.368   8.288   5.137  1.00  0.00    -0.217 OA
HETATM    3  O   UNL     1      66.541   7.967   7.510  1.00  0.00    -0.217 OA
ENDROOT
BRANCH   1   4
HETATM    4  C   UNL     1      67.116   5.937   6.103  1.00  0.00     0.077 A 
HETATM    5  C   UNL     1      67.201   5.066   4.952  1.00  0.00    -0.033 A 
HETATM    6  C   UNL     1      67.712   3.830   5.313  1.00  0.00     0.057 A 
HETATM    7  C   UNL     1      66.818   5.412   3.550  1.00  0.00     0.050 C 
HETATM    8  S   UNL     1      68.075   3.711   6.977  1.00  0.00    -0.112 SA
HETATM    9  C   UNL     1      67.571   5.318   7.253  1.00  0.00     0.073 A 
ENDBRANCH   1   4
BRANCH   1  10
HETATM   10  C   UNL     1      64.875   7.554   5.531  1.00  0.00     0.064 A 
HETATM   11  C   UNL     1      63.952   6.772   6.234  1.00  0.00     0.025 A 
HETATM   12  C   UNL     1      62.622   6.721   5.817  1.00  0.00     0.025 A 
HETATM   13  C   UNL     1      62.216   7.465   4.711  1.00  0.00     0.034 A 
HETATM   14  C   UNL     1      63.127   8.275   4.027  1.00  0.00     0.025 A 
HETATM   15 CL   UNL     1      60.583   7.376   4.180  1.00  0.00    -0.084 Cl
HETATM   16  C   UNL     1      64.464   8.329   4.441  1.00  0.00     0.025 A 
ENDBRANCH   1  10
TORSDOF 2
ENDMDL
MODEL 8
REMARK VINA RESULT:      -4.7      1.805      2.277
REMARK  2 active torsions:
REMARK  status: ('A' for Active; 'I' for Inactive)
REMARK    1  A    between atoms: S_1  and  C_2 
REMARK    2  A    between atoms: S_1  and  C_4 
ROOT
HETATM    1  S   UNL     1      63.268   6.950   5.779  1.00  0.00     0.207 S 
HETATM    2  O   UNL     1      63.059   7.947   6.802  1.00  0.00    -0.217 OA
HETATM    3  O   UNL     1      63.054   5.533   6.033  1.00  0.00    -0.217 OA
ENDROOT
BRANCH   1   4
HETATM    4  C   UNL     1      64.954   7.062   5.336  1.00  0.00     0.077 A 
HETATM    5  C   UNL     1      65.576   6.448   4.185  1.00  0.00    -0.033 A 
HETATM    6  C   UNL     1      66.924   6.766   4.132  1.00  0.00     0.057 A 
HETATM    7  C   UNL     1      64.898   5.597   3.161  1.00  0.00     0.050 C 
HETATM    8  S   UNL     1      67.431   7.763   5.421  1.00  0.00    -0.112 SA
HETATM    9  C   UNL     1      65.856   7.807   6.074  1.00  0.00     0.073 A 
ENDBRANCH   1   4
BRANCH   1  10
HETATM   10  C   UNL     1      62.336   7.396   4.336  1.00  0.00     0.064 A 
HETATM   11  C   UNL     1      61.290   6.555   3.937  1.00  0.00     0.025 A 
HETATM   12  C   UNL     1      60.532   6.874   2.811  1.00  0.00     0.025 A 
HETATM   13  C   UNL     1      60.810   8.038   2.099  1.00  0.00     0.034 A 
HETATM   14  C   UNL     1      61.831   8.898   2.513  1.00  0.00     0.025 A 
HETATM   15 CL   UNL     1      59.894   8.412   0.692  1.00  0.00    -0.084 Cl
HETATM   16  C   UNL     1      62.596   8.583   3.643  1.00  0.00     0.025 A 
ENDBRANCH   1  10
TORSDOF 2
ENDMDL
MODEL 9
REMARK VINA RESULT:      -4.3      2.641      3.882
REMARK  2 active torsions:
REMARK  status: ('A' for Active; 'I' for Inactive)
REMARK    1  A    between atoms: S_1  and  C_2 
REMARK    2  A    between atoms: S_1  and  C_4 
ROOT
HETATM    1  S   UNL     1      63.837   6.777   6.105  1.00  0.00     0.207 S 
HETATM    2  O   UNL     1      65.262   6.545   6.126  1.00  0.00    -0.217 OA
HETATM    3  O   UNL     1      63.189   7.656   7.066  1.00  0.00    -0.217 OA
ENDROOT
BRANCH   1   4
HETATM    4  C   UNL     1      63.093   5.219   6.370  1.00  0.00     0.077 A 
HETATM    5  C   UNL     1      61.677   4.931   6.322  1.00  0.00    -0.033 A 
HETATM    6  C   UNL     1      61.445   3.586   6.558  1.00  0.00     0.057 A 
HETATM    7  C   UNL     1      60.583   5.911   6.043  1.00  0.00     0.050 C 
HETATM    8  S   UNL     1      62.874   2.695   6.834  1.00  0.00    -0.112 SA
HETATM    9  C   UNL     1      63.841   4.085   6.629  1.00  0.00     0.073 A 
ENDBRANCH   1   4
BRANCH   1  10
HETATM   10  C   UNL     1      63.358   7.295   4.477  1.00  0.00     0.064 A 
HETATM   11  C   UNL     1      62.871   8.598   4.313  1.00  0.00     0.025 A 
HETATM   12  C   UNL     1      62.489   9.043   3.049  1.00  0.00     0.025 A 
HETATM   13  C   UNL     1      62.609   8.194   1.951  1.00  0.00     0.034 A 
HETATM   14  C   UNL     1      63.126   6.904   2.105  1.00  0.00     0.025 A 
HETATM   15 CL   UNL     1      62.106   8.735   0.398  1.00  0.00    -0.084 Cl
HETATM   16  C   UNL     1      63.512   6.451   3.372  1.00  0.00     0.025 A 
ENDBRANCH   1  10
TORSDOF 2
ENDMDL
