MODEL 1
REMARK VINA RESULT:      -5.0      0.000      0.000
REMARK  6 active torsions:
REMARK  status: ('A' for Active; 'I' for Inactive)
REMARK    1  A    between atoms: C_2  and  S_8 
REMARK    2  A    between atoms: C_4  and  C_6 
REMARK    3  A    between atoms: C_6  and  O_12 
REMARK    4  A    between atoms: S_8  and  C_15 
REMARK    5  A    between atoms: O_12  and  C_16 
REMARK    6  A    between atoms: C_15  and  C_17 
ROOT
HETATM    1  C   UNL     1      62.723   8.440   2.649  1.00  0.00     0.041 C 
HETATM    2  C   UNL     1      63.106   7.132   2.414  1.00  0.00     0.056 C 
HETATM    3  C   UNL     1      63.068   8.855   4.000  1.00  0.00    -0.019 C 
HETATM    4  C   UNL     1      63.696   7.852   4.714  1.00  0.00     0.088 C 
HETATM    5  S   UNL     1      63.562   6.356   3.876  1.00  0.00    -0.076 SA
HETATM    6  C   UNL     1      62.107   9.377   1.701  1.00  0.00     0.162 C 
HETATM    7  O   UNL     1      61.736   9.058   0.574  1.00  0.00    -0.292 OA
HETATM    8  C   UNL     1      62.828  10.271   4.462  1.00  0.00     0.042 C 
HETATM    9  C   UNL     1      62.011  10.828   2.151  1.00  0.00     0.084 C 
HETATM   10  C   UNL     1      61.723  10.938   3.645  1.00  0.00     0.012 C 
ENDROOT
BRANCH   4  11
HETATM   11  C   UNL     1      64.406   7.878   5.983  1.00  0.00     0.300 C 
HETATM   12  O   UNL     1      64.128   7.238   6.996  1.00  0.00    -0.259 OA
BRANCH  11  13
HETATM   13  O   UNL     1      65.496   8.688   5.878  1.00  0.00    -0.317 OA
BRANCH  13  14
HETATM   14  C   UNL     1      66.783   8.092   6.105  1.00  0.00     0.174 C 
HETATM   15  C   UNL     1      67.392   7.630   4.794  1.00  0.00     0.034 C 
ENDBRANCH  13  14
ENDBRANCH  11  13
ENDBRANCH   4  11
BRANCH   2  16
HETATM   16  S   UNL     1      63.143   6.201   0.918  1.00  0.00    -0.122 SA
BRANCH  16  17
HETATM   17  C   UNL     1      61.601   5.227   1.002  1.00  0.00     0.080 C 
BRANCH  17  18
HETATM   18  C   UNL     1      60.384   5.905   1.643  1.00  0.00     0.006 C 
HETATM   19  C   UNL     1      59.363   6.502   0.685  1.00  0.00     0.006 C 
ENDBRANCH  17  18
ENDBRANCH  16  17
ENDBRANCH   2  16
TORSDOF 6
ENDMDL
MODEL 2
REMARK VINA RESULT:      -5.0      1.310      1.699
REMARK  6 active torsions:
REMARK  status: ('A' for Active; 'I' for Inactive)
REMARK    1  A    between atoms: C_2  and  S_8 
REMARK    2  A    between atoms: C_4  and  C_6 
REMARK    3  A    between atoms: C_6  and  O_12 
REMARK    4  A    between atoms: S_8  and  C_15 
REMARK    5  A    between atoms: O_12  and  C_16 
REMARK    6  A    between atoms: C_15  and  C_17 
ROOT
HETATM    1  C   UNL     1      62.858   8.653   3.276  1.00  0.00     0.041 C 
HETATM    2  C   UNL     1      63.198   7.359   2.927  1.00  0.00     0.056 C 
HETATM    3  C   UNL     1      63.491   9.043   4.527  1.00  0.00    -0.019 C 
HETATM    4  C   UNL     1      64.278   8.037   5.054  1.00  0.00     0.088 C 
HETATM    5  S   UNL     1      63.982   6.558   4.228  1.00  0.00    -0.076 SA
HETATM    6  C   UNL     1      62.032   9.598   2.517  1.00  0.00     0.162 C 
HETATM    7  O   UNL     1      61.421   9.298   1.493  1.00  0.00    -0.292 OA
HETATM    8  C   UNL     1      63.341  10.443   5.069  1.00  0.00     0.042 C 
HETATM    9  C   UNL     1      62.017  11.037   3.016  1.00  0.00     0.084 C 
HETATM   10  C   UNL     1      62.071  11.106   4.538  1.00  0.00     0.012 C 
ENDROOT
BRANCH   4  11
HETATM   11  C   UNL     1      65.256   8.048   6.133  1.00  0.00     0.300 C 
HETATM   12  O   UNL     1      66.226   8.795   6.238  1.00  0.00    -0.259 OA
BRANCH  11  13
HETATM   13  O   UNL     1      64.904   7.129   7.074  1.00  0.00    -0.317 OA
BRANCH  13  14
HETATM   14  C   UNL     1      65.904   6.177   7.470  1.00  0.00     0.174 C 
HETATM   15  C   UNL     1      66.357   6.444   8.893  1.00  0.00     0.034 C 
ENDBRANCH  13  14
ENDBRANCH  11  13
ENDBRANCH   4  11
BRANCH   2  16
HETATM   16  S   UNL     1      62.912   6.464   1.435  1.00  0.00    -0.122 SA
BRANCH  16  17
HETATM   17  C   UNL     1      61.185   5.898   1.622  1.00  0.00     0.080 C 
BRANCH  17  18
HETATM   18  C   UNL     1      60.611   5.872   3.043  1.00  0.00     0.006 C 
HETATM   19  C   UNL     1      59.525   6.893   3.348  1.00  0.00     0.006 C 
ENDBRANCH  17  18
ENDBRANCH  16  17
ENDBRANCH   2  16
TORSDOF 6
ENDMDL
MODEL 3
REMARK VINA RESULT:      -5.0      1.935      5.599
REMARK  6 active torsions:
REMARK  status: ('A' for Active; 'I' for Inactive)
REMARK    1  A    between atoms: C_2  and  S_8 
REMARK    2  A    between atoms: C_4  and  C_6 
REMARK    3  A    between atoms: C_6  and  O_12 
REMARK    4  A    between atoms: S_8  and  C_15 
REMARK    5  A    between atoms: O_12  and  C_16 
REMARK    6  A    between atoms: C_15  and  C_17 
ROOT
HETATM    1  C   UNL     1      63.796   9.128   4.669  1.00  0.00     0.041 C 
HETATM    2  C   UNL     1      64.713   8.111   4.863  1.00  0.00     0.056 C 
HETATM    3  C   UNL     1      62.779   8.741   3.702  1.00  0.00    -0.019 C 
HETATM    4  C   UNL     1      62.970   7.459   3.223  1.00  0.00     0.088 C 
HETATM    5  S   UNL     1      64.523   6.880   3.681  1.00  0.00    -0.076 SA
HETATM    6  C   UNL     1      63.740  10.427   5.349  1.00  0.00     0.162 C 
HETATM    7  O   UNL     1      64.609  10.827   6.121  1.00  0.00    -0.292 OA
HETATM    8  C   UNL     1      61.619   9.653   3.390  1.00  0.00     0.042 C 
HETATM    9  C   UNL     1      62.486  11.259   5.119  1.00  0.00     0.084 C 
HETATM   10  C   UNL     1      61.965  11.109   3.694  1.00  0.00     0.012 C 
ENDROOT
BRANCH   4  11
HETATM   11  C   UNL     1      62.105   6.588   2.440  1.00  0.00     0.300 C 
HETATM   12  O   UNL     1      61.404   5.673   2.867  1.00  0.00    -0.259 OA
BRANCH  11  13
HETATM   13  O   UNL     1      62.129   6.977   1.135  1.00  0.00    -0.317 OA
BRANCH  13  14
HETATM   14  C   UNL     1      60.928   6.787   0.370  1.00  0.00     0.174 C 
HETATM   15  C   UNL     1      60.025   8.000   0.491  1.00  0.00     0.034 C 
ENDBRANCH  13  14
ENDBRANCH  11  13
ENDBRANCH   4  11
BRANCH   2  16
HETATM   16  S   UNL     1      65.997   7.941   6.058  1.00  0.00    -0.122 SA
BRANCH  16  17
HETATM   17  C   UNL     1      67.223   6.896   5.197  1.00  0.00     0.080 C 
BRANCH  17  18
HETATM   18  C   UNL     1      67.636   5.592   5.890  1.00  0.00     0.006 C 
HETATM   19  C   UNL     1      67.955   5.691   7.375  1.00  0.00     0.006 C 
ENDBRANCH  17  18
ENDBRANCH  16  17
ENDBRANCH   2  16
TORSDOF 6
ENDMDL
MODEL 4
REMARK VINA RESULT:      -4.9      1.851      5.614
REMARK  6 active torsions:
REMARK  status: ('A' for Active; 'I' for Inactive)
REMARK    1  A    between atoms: C_2  and  S_8 
REMARK    2  A    between atoms: C_4  and  C_6 
REMARK    3  A    between atoms: C_6  and  O_12 
REMARK    4  A    between atoms: S_8  and  C_15 
REMARK    5  A    between atoms: O_12  and  C_16 
REMARK    6  A    between atoms: C_15  and  C_17 
ROOT
HETATM    1  C   UNL     1      63.561   8.464   4.132  1.00  0.00     0.041 C 
HETATM    2  C   UNL     1      64.198   7.265   3.873  1.00  0.00     0.056 C 
HETATM    3  C   UNL     1      62.357   8.605   3.328  1.00  0.00    -0.019 C 
HETATM    4  C   UNL     1      62.139   7.511   2.512  1.00  0.00     0.088 C 
HETATM    5  S   UNL     1      63.535   6.506   2.483  1.00  0.00    -0.076 SA
HETATM    6  C   UNL     1      63.940   9.486   5.115  1.00  0.00     0.162 C 
HETATM    7  O   UNL     1      64.980   9.448   5.769  1.00  0.00    -0.292 OA
HETATM    8  C   UNL     1      61.444   9.793   3.498  1.00  0.00     0.042 C 
HETATM    9  C   UNL     1      62.927  10.597   5.362  1.00  0.00     0.084 C 
HETATM   10  C   UNL     1      62.197  10.987   4.081  1.00  0.00     0.012 C 
ENDROOT
BRANCH   4  11
HETATM   11  C   UNL     1      60.979   7.113   1.729  1.00  0.00     0.300 C 
HETATM   12  O   UNL     1      60.877   7.132   0.503  1.00  0.00    -0.259 OA
BRANCH  11  13
HETATM   13  O   UNL     1      60.008   6.642   2.560  1.00  0.00    -0.317 OA
BRANCH  13  14
HETATM   14  C   UNL     1      58.731   7.299   2.519  1.00  0.00     0.174 C 
HETATM   15  C   UNL     1      58.236   7.583   3.924  1.00  0.00     0.034 C 
ENDBRANCH  13  14
ENDBRANCH  11  13
ENDBRANCH   4  11
BRANCH   2  16
HETATM   16  S   UNL     1      65.544   6.482   4.700  1.00  0.00    -0.122 SA
BRANCH  16  17
HETATM   17  C   UNL     1      64.804   5.969   6.290  1.00  0.00     0.080 C 
BRANCH  17  18
HETATM   18  C   UNL     1      65.592   6.300   7.563  1.00  0.00     0.006 C 
HETATM   19  C   UNL     1      66.930   6.998   7.365  1.00  0.00     0.006 C 
ENDBRANCH  17  18
ENDBRANCH  16  17
ENDBRANCH   2  16
TORSDOF 6
ENDMDL
MODEL 5
REMARK VINA RESULT:      -4.6      1.883      2.194
REMARK  6 active torsions:
REMARK  status: ('A' for Active; 'I' for Inactive)
REMARK    1  A    between atoms: C_2  and  S_8 
REMARK    2  A    between atoms: C_4  and  C_6 
REMARK    3  A    between atoms: C_6  and  O_12 
REMARK    4  A    between atoms: S_8  and  C_15 
REMARK    5  A    between atoms: O_12  and  C_16 
REMARK    6  A    between atoms: C_15  and  C_17 
ROOT
HETATM    1  C   UNL     1      61.095   7.823   2.732  1.00  0.00     0.041 C 
HETATM    2  C   UNL     1      60.582   6.557   2.947  1.00  0.00     0.056 C 
HETATM    3  C   UNL     1      61.893   8.266   3.865  1.00  0.00    -0.019 C 
HETATM    4  C   UNL     1      61.951   7.319   4.870  1.00  0.00     0.088 C 
HETATM    5  S   UNL     1      60.795   6.078   4.582  1.00  0.00    -0.076 SA
HETATM    6  C   UNL     1      60.959   8.653   1.529  1.00  0.00     0.162 C 
HETATM    7  O   UNL     1      60.243   8.355   0.575  1.00  0.00    -0.292 OA
HETATM    8  C   UNL     1      62.629   9.582   3.828  1.00  0.00     0.042 C 
HETATM    9  C   UNL     1      61.826   9.903   1.468  1.00  0.00     0.084 C 
HETATM   10  C   UNL     1      61.980  10.549   2.841  1.00  0.00     0.012 C 
ENDROOT
BRANCH   4  11
HETATM   11  C   UNL     1      62.792   7.226   6.054  1.00  0.00     0.300 C 
HETATM   12  O   UNL     1      62.621   7.806   7.125  1.00  0.00    -0.259 OA
BRANCH  11  13
HETATM   13  O   UNL     1      63.794   6.331   5.831  1.00  0.00    -0.317 OA
BRANCH  13  14
HETATM   14  C   UNL     1      65.100   6.861   5.558  1.00  0.00     0.174 C 
HETATM   15  C   UNL     1      65.409   6.773   4.075  1.00  0.00     0.034 C 
ENDBRANCH  13  14
ENDBRANCH  11  13
ENDBRANCH   4  11
BRANCH   2  16
HETATM   16  S   UNL     1      59.751   5.457   1.848  1.00  0.00    -0.122 SA
BRANCH  16  17
HETATM   17  C   UNL     1      61.075   4.954   0.694  1.00  0.00     0.080 C 
BRANCH  17  18
HETATM   18  C   UNL     1      62.499   4.880   1.258  1.00  0.00     0.006 C 
HETATM   19  C   UNL     1      63.493   5.896   0.713  1.00  0.00     0.006 C 
ENDBRANCH  17  18
ENDBRANCH  16  17
ENDBRANCH   2  16
TORSDOF 6
ENDMDL
MODEL 6
REMARK VINA RESULT:      -4.6      1.606      2.288
REMARK  6 active torsions:
REMARK  status: ('A' for Active; 'I' for Inactive)
REMARK    1  A    between atoms: C_2  and  S_8 
REMARK    2  A    between atoms: C_4  and  C_6 
REMARK    3  A    between atoms: C_6  and  O_12 
REMARK    4  A    between atoms: S_8  and  C_15 
REMARK    5  A    between atoms: O_12  and  C_16 
REMARK    6  A    between atoms: C_15  and  C_17 
ROOT
HETATM    1  C   UNL     1      62.790   8.503   2.865  1.00  0.00     0.041 C 
HETATM    2  C   UNL     1      63.199   7.212   2.586  1.00  0.00     0.056 C 
HETATM    3  C   UNL     1      63.312   8.955   4.146  1.00  0.00    -0.019 C 
HETATM    4  C   UNL     1      64.090   7.995   4.765  1.00  0.00     0.088 C 
HETATM    5  S   UNL     1      63.908   6.481   3.969  1.00  0.00    -0.076 SA
HETATM    6  C   UNL     1      61.993   9.394   2.015  1.00  0.00     0.162 C 
HETATM    7  O   UNL     1      61.473   9.040   0.958  1.00  0.00    -0.292 OA
HETATM    8  C   UNL     1      63.073  10.364   4.628  1.00  0.00     0.042 C 
HETATM    9  C   UNL     1      61.891  10.846   2.462  1.00  0.00     0.084 C 
HETATM   10  C   UNL     1      61.826  10.964   3.981  1.00  0.00     0.012 C 
ENDROOT
BRANCH   4  11
HETATM   11  C   UNL     1      64.980   8.075   5.913  1.00  0.00     0.300 C 
HETATM   12  O   UNL     1      65.869   8.904   6.099  1.00  0.00    -0.259 OA
BRANCH  11  13
HETATM   13  O   UNL     1      64.645   7.112   6.817  1.00  0.00    -0.317 OA
BRANCH  13  14
HETATM   14  C   UNL     1      65.705   6.560   7.614  1.00  0.00     0.174 C 
HETATM   15  C   UNL     1      66.440   5.479   6.844  1.00  0.00     0.034 C 
ENDBRANCH  13  14
ENDBRANCH  11  13
ENDBRANCH   4  11
BRANCH   2  16
HETATM   16  S   UNL     1      63.059   6.262   1.108  1.00  0.00    -0.122 SA
BRANCH  16  17
HETATM   17  C   UNL     1      64.293   4.937   1.355  1.00  0.00     0.080 C 
BRANCH  17  18
HETATM   18  C   UNL     1      63.774   3.494   1.356  1.00  0.00     0.006 C 
HETATM   19  C   UNL     1      64.821   2.402   1.189  1.00  0.00     0.006 C 
ENDBRANCH  17  18
ENDBRANCH  16  17
ENDBRANCH   2  16
TORSDOF 6
ENDMDL
MODEL 7
REMARK VINA RESULT:      -4.6      2.635      3.135
REMARK  6 active torsions:
REMARK  status: ('A' for Active; 'I' for Inactive)
REMARK    1  A    between atoms: C_2  and  S_8 
REMARK    2  A    between atoms: C_4  and  C_6 
REMARK    3  A    between atoms: C_6  and  O_12 
REMARK    4  A    between atoms: S_8  and  C_15 
REMARK    5  A    between atoms: O_12  and  C_16 
REMARK    6  A    between atoms: C_15  and  C_17 
ROOT
HETATM    1  C   UNL     1      62.121   7.384   4.661  1.00  0.00     0.041 C 
HETATM    2  C   UNL     1      61.886   6.039   4.883  1.00  0.00     0.056 C 
HETATM    3  C   UNL     1      63.347   7.818   5.312  1.00  0.00    -0.019 C 
HETATM    4  C   UNL     1      63.978   6.788   5.984  1.00  0.00     0.088 C 
HETATM    5  S   UNL     1      62.934   5.426   6.096  1.00  0.00    -0.076 SA
HETATM    6  C   UNL     1      61.331   8.308   3.838  1.00  0.00     0.162 C 
HETATM    7  O   UNL     1      60.255   8.010   3.324  1.00  0.00    -0.292 OA
HETATM    8  C   UNL     1      63.860   9.226   5.141  1.00  0.00     0.042 C 
HETATM    9  C   UNL     1      61.949   9.673   3.571  1.00  0.00     0.084 C 
HETATM   10  C   UNL     1      62.728  10.185   4.778  1.00  0.00     0.012 C 
ENDROOT
BRANCH   4  11
HETATM   11  C   UNL     1      65.308   6.697   6.569  1.00  0.00     0.300 C 
HETATM   12  O   UNL     1      65.651   7.092   7.681  1.00  0.00    -0.259 OA
BRANCH  11  13
HETATM   13  O   UNL     1      66.137   6.035   5.713  1.00  0.00    -0.317 OA
BRANCH  13  14
HETATM   14  C   UNL     1      67.489   6.508   5.610  1.00  0.00     0.174 C 
HETATM   15  C   UNL     1      67.544   7.787   4.796  1.00  0.00     0.034 C 
ENDBRANCH  13  14
ENDBRANCH  11  13
ENDBRANCH   4  11
BRANCH   2  16
HETATM   16  S   UNL     1      60.699   4.951   4.165  1.00  0.00    -0.122 SA
BRANCH  16  17
HETATM   17  C   UNL     1      59.522   4.669   5.534  1.00  0.00     0.080 C 
BRANCH  17  18
HETATM   18  C   UNL     1      59.112   5.892   6.363  1.00  0.00     0.006 C 
HETATM   19  C   UNL     1      59.559   5.898   7.818  1.00  0.00     0.006 C 
ENDBRANCH  17  18
ENDBRANCH  16  17
ENDBRANCH   2  16
TORSDOF 6
ENDMDL
MODEL 8
REMARK VINA RESULT:      -4.5      2.039      3.324
REMARK  6 active torsions:
REMARK  status: ('A' for Active; 'I' for Inactive)
REMARK    1  A    between atoms: C_2  and  S_8 
REMARK    2  A    between atoms: C_4  and  C_6 
REMARK    3  A    between atoms: C_6  and  O_12 
REMARK    4  A    between atoms: S_8  and  C_15 
REMARK    5  A    between atoms: O_12  and  C_16 
REMARK    6  A    between atoms: C_15  and  C_17 
ROOT
HETATM    1  C   UNL     1      61.559   6.687   3.859  1.00  0.00     0.041 C 
HETATM    2  C   UNL     1      62.493   6.994   2.887  1.00  0.00     0.056 C 
HETATM    3  C   UNL     1      62.158   6.697   5.185  1.00  0.00    -0.019 C 
HETATM    4  C   UNL     1      63.502   7.016   5.153  1.00  0.00     0.088 C 
HETATM    5  S   UNL     1      64.083   6.970   3.534  1.00  0.00    -0.076 SA
HETATM    6  C   UNL     1      60.124   6.436   3.676  1.00  0.00     0.162 C 
HETATM    7  O   UNL     1      59.584   6.350   2.575  1.00  0.00    -0.292 OA
HETATM    8  C   UNL     1      61.316   6.476   6.418  1.00  0.00     0.042 C 
HETATM    9  C   UNL     1      59.284   6.359   4.944  1.00  0.00     0.084 C 
HETATM   10  C   UNL     1      60.046   5.697   6.086  1.00  0.00     0.012 C 
ENDROOT
BRANCH   4  11
HETATM   11  C   UNL     1      64.432   7.362   6.217  1.00  0.00     0.300 C 
HETATM   12  O   UNL     1      64.517   6.830   7.322  1.00  0.00    -0.259 OA
BRANCH  11  13
HETATM   13  O   UNL     1      65.267   8.349   5.788  1.00  0.00    -0.317 OA
BRANCH  13  14
HETATM   14  C   UNL     1      66.622   8.318   6.264  1.00  0.00     0.174 C 
HETATM   15  C   UNL     1      67.523   7.630   5.257  1.00  0.00     0.034 C 
ENDBRANCH  13  14
ENDBRANCH  11  13
ENDBRANCH   4  11
BRANCH   2  16
HETATM   16  S   UNL     1      62.287   7.341   1.171  1.00  0.00    -0.122 SA
BRANCH  16  17
HETATM   17  C   UNL     1      62.387   9.164   1.107  1.00  0.00     0.080 C 
BRANCH  17  18
HETATM   18  C   UNL     1      61.655   9.941   2.208  1.00  0.00     0.006 C 
HETATM   19  C   UNL     1      61.802  11.455   2.175  1.00  0.00     0.006 C 
ENDBRANCH  17  18
ENDBRANCH  16  17
ENDBRANCH   2  16
TORSDOF 6
ENDMDL
MODEL 9
REMARK VINA RESULT:      -4.4      5.052      6.429
REMARK  6 active torsions:
REMARK  status: ('A' for Active; 'I' for Inactive)
REMARK    1  A    between atoms: C_2  and  S_8 
REMARK    2  A    between atoms: C_4  and  C_6 
REMARK    3  A    between atoms: C_6  and  O_12 
REMARK    4  A    between atoms: S_8  and  C_15 
REMARK    5  A    between atoms: O_12  and  C_16 
REMARK    6  A    between atoms: C_15  and  C_17 
ROOT
HETATM    1  C   UNL     1      58.772   6.300   4.935  1.00  0.00     0.041 C 
HETATM    2  C   UNL     1      60.145   6.245   5.086  1.00  0.00     0.056 C 
HETATM    3  C   UNL     1      58.097   6.215   6.221  1.00  0.00    -0.019 C 
HETATM    4  C   UNL     1      58.986   6.109   7.274  1.00  0.00     0.088 C 
HETATM    5  S   UNL     1      60.568   5.782   6.684  1.00  0.00    -0.076 SA
HETATM    6  C   UNL     1      58.013   6.485   3.692  1.00  0.00     0.162 C 
HETATM    7  O   UNL     1      58.529   6.495   2.576  1.00  0.00    -0.292 OA
HETATM    8  C   UNL     1      56.598   6.342   6.321  1.00  0.00     0.042 C 
HETATM    9  C   UNL     1      56.522   6.751   3.842  1.00  0.00     0.084 C 
HETATM   10  C   UNL     1      55.924   5.965   5.004  1.00  0.00     0.012 C 
ENDROOT
BRANCH   4  11
HETATM   11  C   UNL     1      58.789   6.225   8.712  1.00  0.00     0.300 C 
HETATM   12  O   UNL     1      58.302   7.181   9.312  1.00  0.00    -0.259 OA
BRANCH  11  13
HETATM   13  O   UNL     1      59.175   5.069   9.319  1.00  0.00    -0.317 OA
BRANCH  13  14
HETATM   14  C   UNL     1      58.295   3.940   9.203  1.00  0.00     0.174 C 
HETATM   15  C   UNL     1      58.300   3.129  10.485  1.00  0.00     0.034 C 
ENDBRANCH  13  14
ENDBRANCH  11  13
ENDBRANCH   4  11
BRANCH   2  16
HETATM   16  S   UNL     1      61.437   6.525   3.919  1.00  0.00    -0.122 SA
BRANCH  16  17
HETATM   17  C   UNL     1      61.326   8.321   3.608  1.00  0.00     0.080 C 
BRANCH  17  18
HETATM   18  C   UNL     1      61.454   8.785   2.153  1.00  0.00     0.006 C 
HETATM   19  C   UNL     1      61.855  10.238   1.942  1.00  0.00     0.006 C 
ENDBRANCH  17  18
ENDBRANCH  16  17
ENDBRANCH   2  16
TORSDOF 6
ENDMDL
