MODEL 1
REMARK VINA RESULT:      -5.4      0.000      0.000
REMARK  2 active torsions:
REMARK  status: ('A' for Active; 'I' for Inactive)
REMARK    1  A    between atoms: C_2  and  C_4 
REMARK    2  A    between atoms: C_3  and  C_7 
REMARK       I    between atoms: C_4  and  N_11 
ROOT
HETATM    1  S   UNL     1      63.741   9.517   5.180  1.00  0.00    -0.083 SA
HETATM    2  C   UNL     1      62.773   9.503   3.771  1.00  0.00     0.073 A 
HETATM    3  C   UNL     1      64.431   7.985   4.836  1.00  0.00     0.032 A 
HETATM    4  C   UNL     1      62.932   8.321   3.073  1.00  0.00     0.026 A 
HETATM    5  C   UNL     1      63.867   7.442   3.696  1.00  0.00     0.023 A 
ENDROOT
BRANCH   3   6
HETATM    6  C   UNL     1      65.467   7.407   5.701  1.00  0.00     0.049 A 
HETATM    7  N   UNL     1      65.075   7.189   6.981  1.00  0.00    -0.365 N 
HETATM    8  C   UNL     1      65.973   6.616   7.814  1.00  0.00     0.088 A 
ATOM      9  HN  UNL     1      64.142   7.446   7.302  1.00  0.00     0.165 HD
HETATM   10  C   UNL     1      67.245   6.230   7.432  1.00  0.00     0.017 A 
HETATM   11  C   UNL     1      67.630   6.453   6.116  1.00  0.00     0.004 A 
HETATM   12  C   UNL     1      66.732   7.051   5.237  1.00  0.00     0.031 A 
ENDBRANCH   3   6
BRANCH   2  13
HETATM   13  C   UNL     1      61.919  10.621   3.410  1.00  0.00     0.256 C 
HETATM   14  O   UNL     1      61.725  11.599   4.127  1.00  0.00    -0.267 OA
HETATM   15  N   UNL     1      61.295  10.555   2.194  1.00  0.00    -0.366 N 
HETATM   16  H   UNL     1      61.439   9.778   1.608  1.00  0.00     0.159 HD
HETATM   17  H   UNL     1      60.701  11.286   1.905  1.00  0.00     0.159 HD
ENDBRANCH   2  13
TORSDOF 2
ENDMDL
MODEL 2
REMARK VINA RESULT:      -5.3      2.645      5.926
REMARK  2 active torsions:
REMARK  status: ('A' for Active; 'I' for Inactive)
REMARK    1  A    between atoms: C_2  and  C_4 
REMARK    2  A    between atoms: C_3  and  C_7 
REMARK       I    between atoms: C_4  and  N_11 
ROOT
HETATM    1  S   UNL     1      64.896   8.378   5.222  1.00  0.00    -0.083 SA
HETATM    2  C   UNL     1      64.739   7.126   6.377  1.00  0.00     0.073 A 
HETATM    3  C   UNL     1      63.251   8.276   4.749  1.00  0.00     0.032 A 
HETATM    4  C   UNL     1      63.463   6.599   6.365  1.00  0.00     0.026 A 
HETATM    5  C   UNL     1      62.615   7.244   5.417  1.00  0.00     0.023 A 
ENDROOT
BRANCH   3   6
HETATM    6  C   UNL     1      62.688   9.197   3.754  1.00  0.00     0.049 A 
HETATM    7  N   UNL     1      62.390  10.431   4.232  1.00  0.00    -0.365 N 
HETATM    8  C   UNL     1      61.911  11.337   3.351  1.00  0.00     0.088 A 
ATOM      9  HN  UNL     1      62.522  10.665   5.216  1.00  0.00     0.165 HD
HETATM   10  C   UNL     1      61.727  11.082   2.003  1.00  0.00     0.017 A 
HETATM   11  C   UNL     1      62.044   9.817   1.526  1.00  0.00     0.004 A 
HETATM   12  C   UNL     1      62.529   8.859   2.411  1.00  0.00     0.031 A 
ENDBRANCH   3   6
BRANCH   2  13
HETATM   13  C   UNL     1      65.844   6.721   7.230  1.00  0.00     0.256 C 
HETATM   14  O   UNL     1      65.842   5.707   7.923  1.00  0.00    -0.267 OA
HETATM   15  N   UNL     1      66.938   7.540   7.255  1.00  0.00    -0.366 N 
HETATM   16  H   UNL     1      66.955   8.357   6.706  1.00  0.00     0.159 HD
HETATM   17  H   UNL     1      67.711   7.313   7.821  1.00  0.00     0.159 HD
ENDBRANCH   2  13
TORSDOF 2
ENDMDL
MODEL 3
REMARK VINA RESULT:      -5.2      3.128      6.026
REMARK  2 active torsions:
REMARK  status: ('A' for Active; 'I' for Inactive)
REMARK    1  A    between atoms: C_2  and  C_4 
REMARK    2  A    between atoms: C_3  and  C_7 
REMARK       I    between atoms: C_4  and  N_11 
ROOT
HETATM    1  S   UNL     1      64.702   6.694   6.609  1.00  0.00    -0.083 SA
HETATM    2  C   UNL     1      66.305   6.097   6.591  1.00  0.00     0.073 A 
HETATM    3  C   UNL     1      65.044   7.918   5.458  1.00  0.00     0.032 A 
HETATM    4  C   UNL     1      67.105   6.855   5.759  1.00  0.00     0.026 A 
HETATM    5  C   UNL     1      66.387   7.913   5.126  1.00  0.00     0.023 A 
ENDROOT
BRANCH   3   6
HETATM    6  C   UNL     1      63.988   8.810   4.962  1.00  0.00     0.049 A 
HETATM    7  N   UNL     1      63.801   9.929   5.704  1.00  0.00    -0.365 N 
HETATM    8  C   UNL     1      62.872  10.811   5.271  1.00  0.00     0.088 A 
ATOM      9  HN  UNL     1      64.339  10.099   6.554  1.00  0.00     0.165 HD
HETATM   10  C   UNL     1      62.126  10.643   4.118  1.00  0.00     0.017 A 
HETATM   11  C   UNL     1      62.334   9.496   3.363  1.00  0.00     0.004 A 
HETATM   12  C   UNL     1      63.275   8.563   3.790  1.00  0.00     0.031 A 
ENDBRANCH   3   6
BRANCH   2  13
HETATM   13  C   UNL     1      66.706   4.938   7.370  1.00  0.00     0.256 C 
HETATM   14  O   UNL     1      66.173   4.597   8.423  1.00  0.00    -0.267 OA
HETATM   15  N   UNL     1      67.750   4.200   6.885  1.00  0.00    -0.366 N 
HETATM   16  H   UNL     1      68.189   4.459   6.043  1.00  0.00     0.159 HD
HETATM   17  H   UNL     1      68.064   3.407   7.378  1.00  0.00     0.159 HD
ENDBRANCH   2  13
TORSDOF 2
ENDMDL
MODEL 4
REMARK VINA RESULT:      -4.7      1.657      1.867
REMARK  2 active torsions:
REMARK  status: ('A' for Active; 'I' for Inactive)
REMARK    1  A    between atoms: C_2  and  C_4 
REMARK    2  A    between atoms: C_3  and  C_7 
REMARK       I    between atoms: C_4  and  N_11 
ROOT
HETATM    1  S   UNL     1      63.575   7.382   3.620  1.00  0.00    -0.083 SA
HETATM    2  C   UNL     1      62.393   8.588   3.352  1.00  0.00     0.073 A 
HETATM    3  C   UNL     1      64.298   8.245   4.914  1.00  0.00     0.032 A 
HETATM    4  C   UNL     1      62.579   9.661   4.201  1.00  0.00     0.026 A 
HETATM    5  C   UNL     1      63.685   9.474   5.082  1.00  0.00     0.023 A 
ENDROOT
BRANCH   3   6
HETATM    6  C   UNL     1      65.420   7.678   5.672  1.00  0.00     0.049 A 
HETATM    7  N   UNL     1      65.104   7.272   6.927  1.00  0.00    -0.365 N 
HETATM    8  C   UNL     1      66.087   6.699   7.658  1.00  0.00     0.088 A 
ATOM      9  HN  UNL     1      64.164   7.393   7.304  1.00  0.00     0.165 HD
HETATM   10  C   UNL     1      67.374   6.493   7.195  1.00  0.00     0.017 A 
HETATM   11  C   UNL     1      67.681   6.906   5.905  1.00  0.00     0.004 A 
HETATM   12  C   UNL     1      66.694   7.510   5.132  1.00  0.00     0.031 A 
ENDBRANCH   3   6
BRANCH   2  13
HETATM   13  C   UNL     1      61.352   8.439   2.348  1.00  0.00     0.256 C 
HETATM   14  O   UNL     1      60.823   7.370   2.058  1.00  0.00    -0.267 OA
HETATM   15  N   UNL     1      60.961   9.574   1.692  1.00  0.00    -0.366 N 
HETATM   16  H   UNL     1      61.376  10.439   1.912  1.00  0.00     0.159 HD
HETATM   17  H   UNL     1      60.263   9.526   0.999  1.00  0.00     0.159 HD
ENDBRANCH   2  13
TORSDOF 2
ENDMDL
MODEL 5
REMARK VINA RESULT:      -4.5      2.774      5.922
REMARK  2 active torsions:
REMARK  status: ('A' for Active; 'I' for Inactive)
REMARK    1  A    between atoms: C_2  and  C_4 
REMARK    2  A    between atoms: C_3  and  C_7 
REMARK       I    between atoms: C_4  and  N_11 
ROOT
HETATM    1  S   UNL     1      64.456   8.385   5.040  1.00  0.00    -0.083 SA
HETATM    2  C   UNL     1      65.509   7.212   5.703  1.00  0.00     0.073 A 
HETATM    3  C   UNL     1      64.092   7.421   3.669  1.00  0.00     0.032 A 
HETATM    4  C   UNL     1      65.625   6.121   4.865  1.00  0.00     0.026 A 
HETATM    5  C   UNL     1      64.829   6.251   3.688  1.00  0.00     0.023 A 
ENDROOT
BRANCH   3   6
HETATM    6  C   UNL     1      63.124   7.870   2.661  1.00  0.00     0.049 A 
HETATM    7  N   UNL     1      62.864   6.963   1.686  1.00  0.00    -0.365 N 
HETATM    8  C   UNL     1      61.946   7.303   0.754  1.00  0.00     0.088 A 
ATOM      9  HN  UNL     1      63.341   6.062   1.658  1.00  0.00     0.165 HD
HETATM   10  C   UNL     1      61.255   8.502   0.751  1.00  0.00     0.017 A 
HETATM   11  C   UNL     1      61.525   9.417   1.760  1.00  0.00     0.004 A 
HETATM   12  C   UNL     1      62.474   9.101   2.728  1.00  0.00     0.031 A 
ENDBRANCH   3   6
BRANCH   2  13
HETATM   13  C   UNL     1      66.162   7.399   6.988  1.00  0.00     0.256 C 
HETATM   14  O   UNL     1      66.029   6.640   7.945  1.00  0.00    -0.267 OA
HETATM   15  N   UNL     1      66.962   8.500   7.120  1.00  0.00    -0.366 N 
HETATM   16  H   UNL     1      67.078   9.118   6.363  1.00  0.00     0.159 HD
HETATM   17  H   UNL     1      67.423   8.675   7.973  1.00  0.00     0.159 HD
ENDBRANCH   2  13
TORSDOF 2
ENDMDL
MODEL 6
REMARK VINA RESULT:      -4.5      3.057      5.992
REMARK  2 active torsions:
REMARK  status: ('A' for Active; 'I' for Inactive)
REMARK    1  A    between atoms: C_2  and  C_4 
REMARK    2  A    between atoms: C_3  and  C_7 
REMARK       I    between atoms: C_4  and  N_11 
ROOT
HETATM    1  S   UNL     1      63.222   6.573   5.603  1.00  0.00    -0.083 SA
HETATM    2  C   UNL     1      64.653   5.946   6.300  1.00  0.00     0.073 A 
HETATM    3  C   UNL     1      63.972   8.051   5.162  1.00  0.00     0.032 A 
HETATM    4  C   UNL     1      65.676   6.872   6.247  1.00  0.00     0.026 A 
HETATM    5  C   UNL     1      65.279   8.088   5.614  1.00  0.00     0.023 A 
ENDROOT
BRANCH   3   6
HETATM    6  C   UNL     1      63.239   9.082   4.417  1.00  0.00     0.049 A 
HETATM    7  N   UNL     1      62.863   8.714   3.167  1.00  0.00    -0.365 N 
HETATM    8  C   UNL     1      62.144   9.606   2.449  1.00  0.00     0.088 A 
ATOM      9  HN  UNL     1      63.111   7.802   2.785  1.00  0.00     0.165 HD
HETATM   10  C   UNL     1      61.763  10.850   2.921  1.00  0.00     0.017 A 
HETATM   11  C   UNL     1      62.148  11.210   4.206  1.00  0.00     0.004 A 
HETATM   12  C   UNL     1      62.899  10.317   4.966  1.00  0.00     0.031 A 
ENDBRANCH   3   6
BRANCH   2  13
HETATM   13  C   UNL     1      64.718   4.605   6.855  1.00  0.00     0.256 C 
HETATM   14  O   UNL     1      65.385   4.299   7.840  1.00  0.00    -0.267 OA
HETATM   15  N   UNL     1      63.990   3.637   6.220  1.00  0.00    -0.366 N 
HETATM   16  H   UNL     1      63.450   3.866   5.429  1.00  0.00     0.159 HD
HETATM   17  H   UNL     1      64.004   2.711   6.553  1.00  0.00     0.159 HD
ENDBRANCH   2  13
TORSDOF 2
ENDMDL
MODEL 7
REMARK VINA RESULT:      -4.4      3.131      6.489
REMARK  2 active torsions:
REMARK  status: ('A' for Active; 'I' for Inactive)
REMARK    1  A    between atoms: C_2  and  C_4 
REMARK    2  A    between atoms: C_3  and  C_7 
REMARK       I    between atoms: C_4  and  N_11 
ROOT
HETATM    1  S   UNL     1      62.606   7.379   4.241  1.00  0.00    -0.083 SA
HETATM    2  C   UNL     1      63.658   8.570   4.874  1.00  0.00     0.073 A 
HETATM    3  C   UNL     1      61.505   8.542   3.628  1.00  0.00     0.032 A 
HETATM    4  C   UNL     1      63.150   9.837   4.670  1.00  0.00     0.026 A 
HETATM    5  C   UNL     1      61.905   9.820   3.975  1.00  0.00     0.023 A 
ENDROOT
BRANCH   3   6
HETATM    6  C   UNL     1      60.320   8.136   2.861  1.00  0.00     0.049 A 
HETATM    7  N   UNL     1      60.366   8.453   1.544  1.00  0.00    -0.365 N 
HETATM    8  C   UNL     1      59.322   8.065   0.777  1.00  0.00     0.088 A 
ATOM      9  HN  UNL     1      61.155   8.964   1.147  1.00  0.00     0.165 HD
HETATM   10  C   UNL     1      58.234   7.356   1.256  1.00  0.00     0.017 A 
HETATM   11  C   UNL     1      58.205   7.031   2.605  1.00  0.00     0.004 A 
HETATM   12  C   UNL     1      59.260   7.428   3.423  1.00  0.00     0.031 A 
ENDBRANCH   3   6
BRANCH   2  13
HETATM   13  C   UNL     1      64.910   8.226   5.528  1.00  0.00     0.256 C 
HETATM   14  O   UNL     1      66.011   8.622   5.158  1.00  0.00    -0.267 OA
HETATM   15  N   UNL     1      64.832   7.400   6.615  1.00  0.00    -0.366 N 
HETATM   16  H   UNL     1      63.956   7.073   6.925  1.00  0.00     0.159 HD
HETATM   17  H   UNL     1      65.652   7.133   7.090  1.00  0.00     0.159 HD
ENDBRANCH   2  13
TORSDOF 2
ENDMDL
MODEL 8
REMARK VINA RESULT:      -4.3      3.417      6.272
REMARK  2 active torsions:
REMARK  status: ('A' for Active; 'I' for Inactive)
REMARK    1  A    between atoms: C_2  and  C_4 
REMARK    2  A    between atoms: C_3  and  C_7 
REMARK       I    between atoms: C_4  and  N_11 
ROOT
HETATM    1  S   UNL     1      65.239   6.586   7.096  1.00  0.00    -0.083 SA
HETATM    2  C   UNL     1      66.797   5.897   7.257  1.00  0.00     0.073 A 
HETATM    3  C   UNL     1      65.474   6.962   5.439  1.00  0.00     0.032 A 
HETATM    4  C   UNL     1      67.508   6.001   6.078  1.00  0.00     0.026 A 
HETATM    5  C   UNL     1      66.757   6.632   5.042  1.00  0.00     0.023 A 
ENDROOT
BRANCH   3   6
HETATM    6  C   UNL     1      64.401   7.564   4.638  1.00  0.00     0.049 A 
HETATM    7  N   UNL     1      63.807   6.715   3.763  1.00  0.00    -0.365 N 
HETATM    8  C   UNL     1      62.781   7.201   3.029  1.00  0.00     0.088 A 
ATOM      9  HN  UNL     1      64.120   5.750   3.664  1.00  0.00     0.165 HD
HETATM   10  C   UNL     1      62.301   8.495   3.134  1.00  0.00     0.017 A 
HETATM   11  C   UNL     1      62.914   9.351   4.039  1.00  0.00     0.004 A 
HETATM   12  C   UNL     1      63.981   8.883   4.801  1.00  0.00     0.031 A 
ENDBRANCH   3   6
BRANCH   2  13
HETATM   13  C   UNL     1      67.249   5.293   8.499  1.00  0.00     0.256 C 
HETATM   14  O   UNL     1      67.005   4.137   8.832  1.00  0.00    -0.267 OA
HETATM   15  N   UNL     1      67.983   6.085   9.339  1.00  0.00    -0.366 N 
HETATM   16  H   UNL     1      68.187   7.015   9.087  1.00  0.00     0.159 HD
HETATM   17  H   UNL     1      68.309   5.725  10.196  1.00  0.00     0.159 HD
ENDBRANCH   2  13
TORSDOF 2
ENDMDL
MODEL 9
REMARK VINA RESULT:      -4.2      3.128      3.747
REMARK  2 active torsions:
REMARK  status: ('A' for Active; 'I' for Inactive)
REMARK    1  A    between atoms: C_2  and  C_4 
REMARK    2  A    between atoms: C_3  and  C_7 
REMARK       I    between atoms: C_4  and  N_11 
ROOT
HETATM    1  S   UNL     1      61.359   8.072   4.102  1.00  0.00    -0.083 SA
HETATM    2  C   UNL     1      62.265   9.521   4.050  1.00  0.00     0.073 A 
HETATM    3  C   UNL     1      62.342   7.391   5.332  1.00  0.00     0.032 A 
HETATM    4  C   UNL     1      63.336   9.466   4.919  1.00  0.00     0.026 A 
HETATM    5  C   UNL     1      63.393   8.236   5.638  1.00  0.00     0.023 A 
ENDROOT
BRANCH   3   6
HETATM    6  C   UNL     1      62.034   6.076   5.909  1.00  0.00     0.049 A 
HETATM    7  N   UNL     1      63.013   5.150   5.757  1.00  0.00    -0.365 N 
HETATM    8  C   UNL     1      62.806   3.933   6.307  1.00  0.00     0.088 A 
ATOM      9  HN  UNL     1      63.872   5.363   5.248  1.00  0.00     0.165 HD
HETATM   10  C   UNL     1      61.671   3.592   7.022  1.00  0.00     0.017 A 
HETATM   11  C   UNL     1      60.680   4.553   7.177  1.00  0.00     0.004 A 
HETATM   12  C   UNL     1      60.860   5.812   6.611  1.00  0.00     0.031 A 
ENDBRANCH   3   6
BRANCH   2  13
HETATM   13  C   UNL     1      61.899  10.629   3.183  1.00  0.00     0.256 C 
HETATM   14  O   UNL     1      61.930  11.809   3.524  1.00  0.00    -0.267 OA
HETATM   15  N   UNL     1      61.490  10.314   1.917  1.00  0.00    -0.366 N 
HETATM   16  H   UNL     1      61.459   9.374   1.629  1.00  0.00     0.159 HD
HETATM   17  H   UNL     1      61.226  11.029   1.293  1.00  0.00     0.159 HD
ENDBRANCH   2  13
TORSDOF 2
ENDMDL
