MODEL 1
REMARK VINA RESULT:      -5.0      0.000      0.000
REMARK  3 active torsions:
REMARK  status: ('A' for Active; 'I' for Inactive)
REMARK    1  A    between atoms: C_3  and  C_9 
REMARK    2  A    between atoms: C_9  and  O_14 
REMARK    3  A    between atoms: O_14  and  C_16 
ROOT
HETATM    1  C   UNL     1      63.696   6.996   3.207  1.00  0.00     0.059 A 
HETATM    2  C   UNL     1      63.283   8.195   3.633  1.00  0.00     0.003 A 
HETATM    3  C   UNL     1      65.014   7.796   5.089  1.00  0.00     0.088 A 
HETATM    4  C   UNL     1      64.018   8.724   4.727  1.00  0.00    -0.026 A 
HETATM    5  S   UNL     1      64.975   6.380   4.072  1.00  0.00    -0.075 SA
HETATM    6  S   UNL     1      62.833   6.403   1.912  1.00  0.00    -0.070 SA
HETATM    7  C   UNL     1      61.828   7.813   1.914  1.00  0.00     0.093 A 
HETATM    8  C   UNL     1      62.183   8.730   2.911  1.00  0.00    -0.022 A 
HETATM    9  C   UNL     1      60.761   7.966   0.972  1.00  0.00     0.107 C 
HETATM   10  N   UNL     1      59.888   8.109   0.220  1.00  0.00    -0.191 NA
HETATM   11  C   UNL     1      63.786  10.052   5.374  1.00  0.00     0.050 C 
HETATM   12  C   UNL     1      61.500  10.036   3.160  1.00  0.00     0.051 C 
ENDROOT
BRANCH   3  13
HETATM   13  C   UNL     1      66.026   7.920   6.135  1.00  0.00     0.300 C 
HETATM   14  O   UNL     1      67.139   8.413   5.988  1.00  0.00    -0.259 OA
BRANCH  13  15
HETATM   15  O   UNL     1      65.614   7.339   7.300  1.00  0.00    -0.317 OA
BRANCH  15  16
HETATM   16  C   UNL     1      66.425   6.253   7.770  1.00  0.00     0.174 C 
HETATM   17  C   UNL     1      66.914   6.604   9.164  1.00  0.00     0.034 C 
ENDBRANCH  15  16
ENDBRANCH  13  15
ENDBRANCH   3  13
TORSDOF 3
ENDMDL
MODEL 2
REMARK VINA RESULT:      -4.9      1.472      2.147
REMARK  3 active torsions:
REMARK  status: ('A' for Active; 'I' for Inactive)
REMARK    1  A    between atoms: C_3  and  C_9 
REMARK    2  A    between atoms: C_9  and  O_14 
REMARK    3  A    between atoms: O_14  and  C_16 
ROOT
HETATM    1  C   UNL     1      62.915   8.788   3.998  1.00  0.00     0.059 A 
HETATM    2  C   UNL     1      63.492   7.734   3.408  1.00  0.00     0.003 A 
HETATM    3  C   UNL     1      64.975   8.138   5.116  1.00  0.00     0.088 A 
HETATM    4  C   UNL     1      64.698   7.299   4.019  1.00  0.00    -0.026 A 
HETATM    5  S   UNL     1      63.752   9.366   5.312  1.00  0.00    -0.075 SA
HETATM    6  S   UNL     1      61.492   9.271   3.278  1.00  0.00    -0.070 SA
HETATM    7  C   UNL     1      61.648   8.019   2.091  1.00  0.00     0.093 A 
HETATM    8  C   UNL     1      62.794   7.236   2.277  1.00  0.00    -0.022 A 
HETATM    9  C   UNL     1      60.676   7.855   1.053  1.00  0.00     0.107 C 
HETATM   10  N   UNL     1      59.902   7.705   0.201  1.00  0.00    -0.191 NA
HETATM   11  C   UNL     1      65.525   6.132   3.583  1.00  0.00     0.050 C 
HETATM   12  C   UNL     1      63.197   6.085   1.413  1.00  0.00     0.051 C 
ENDROOT
BRANCH   3  13
HETATM   13  C   UNL     1      66.089   8.055   6.058  1.00  0.00     0.300 C 
HETATM   14  O   UNL     1      67.243   8.392   5.820  1.00  0.00    -0.259 OA
BRANCH  13  15
HETATM   15  O   UNL     1      65.706   7.472   7.232  1.00  0.00    -0.317 OA
BRANCH  15  16
HETATM   16  C   UNL     1      66.469   6.324   7.629  1.00  0.00     0.174 C 
HETATM   17  C   UNL     1      66.693   6.406   9.128  1.00  0.00     0.034 C 
ENDBRANCH  15  16
ENDBRANCH  13  15
ENDBRANCH   3  13
TORSDOF 3
ENDMDL
MODEL 3
REMARK VINA RESULT:      -4.5      3.934      6.457
REMARK  3 active torsions:
REMARK  status: ('A' for Active; 'I' for Inactive)
REMARK    1  A    between atoms: C_3  and  C_9 
REMARK    2  A    between atoms: C_9  and  O_14 
REMARK    3  A    between atoms: O_14  and  C_16 
ROOT
HETATM    1  C   UNL     1      66.172   6.696   6.278  1.00  0.00     0.059 A 
HETATM    2  C   UNL     1      64.995   6.064   6.359  1.00  0.00     0.003 A 
HETATM    3  C   UNL     1      64.328   8.116   5.569  1.00  0.00     0.088 A 
HETATM    4  C   UNL     1      63.876   6.837   5.950  1.00  0.00    -0.026 A 
HETATM    5  S   UNL     1      66.058   8.261   5.731  1.00  0.00    -0.075 SA
HETATM    6  S   UNL     1      67.473   5.766   6.743  1.00  0.00    -0.070 SA
HETATM    7  C   UNL     1      66.420   4.437   7.095  1.00  0.00     0.093 A 
HETATM    8  C   UNL     1      65.074   4.729   6.836  1.00  0.00    -0.022 A 
HETATM    9  C   UNL     1      66.929   3.198   7.598  1.00  0.00     0.107 C 
HETATM   10  N   UNL     1      67.320   2.185   8.011  1.00  0.00    -0.191 NA
HETATM   11  C   UNL     1      62.457   6.366   5.913  1.00  0.00     0.050 C 
HETATM   12  C   UNL     1      63.935   3.784   7.043  1.00  0.00     0.051 C 
ENDROOT
BRANCH   3  13
HETATM   13  C   UNL     1      63.543   9.234   5.052  1.00  0.00     0.300 C 
HETATM   14  O   UNL     1      63.199  10.217   5.699  1.00  0.00    -0.259 OA
BRANCH  13  15
HETATM   15  O   UNL     1      63.157   9.017   3.760  1.00  0.00    -0.317 OA
BRANCH  15  16
HETATM   16  C   UNL     1      62.010   9.760   3.325  1.00  0.00     0.174 C 
HETATM   17  C   UNL     1      61.971   9.715   1.808  1.00  0.00     0.034 C 
ENDBRANCH  15  16
ENDBRANCH  13  15
ENDBRANCH   3  13
TORSDOF 3
ENDMDL
MODEL 4
REMARK VINA RESULT:      -4.5      3.851      6.563
REMARK  3 active torsions:
REMARK  status: ('A' for Active; 'I' for Inactive)
REMARK    1  A    between atoms: C_3  and  C_9 
REMARK    2  A    between atoms: C_9  and  O_14 
REMARK    3  A    between atoms: O_14  and  C_16 
ROOT
HETATM    1  C   UNL     1      64.451   5.260   6.340  1.00  0.00     0.059 A 
HETATM    2  C   UNL     1      65.576   5.964   6.513  1.00  0.00     0.003 A 
HETATM    3  C   UNL     1      64.202   7.564   5.602  1.00  0.00     0.088 A 
HETATM    4  C   UNL     1      65.494   7.323   6.110  1.00  0.00    -0.026 A 
HETATM    5  S   UNL     1      63.207   6.134   5.669  1.00  0.00    -0.075 SA
HETATM    6  S   UNL     1      64.562   3.673   6.837  1.00  0.00    -0.070 SA
HETATM    7  C   UNL     1      66.213   3.916   7.301  1.00  0.00     0.093 A 
HETATM    8  C   UNL     1      66.651   5.227   7.076  1.00  0.00    -0.022 A 
HETATM    9  C   UNL     1      66.995   2.850   7.850  1.00  0.00     0.107 C 
HETATM   10  N   UNL     1      67.649   2.000   8.293  1.00  0.00    -0.191 NA
HETATM   11  C   UNL     1      66.590   8.334   6.222  1.00  0.00     0.050 C 
HETATM   12  C   UNL     1      68.025   5.737   7.374  1.00  0.00     0.051 C 
ENDROOT
BRANCH   3  13
HETATM   13  C   UNL     1      63.649   8.820   5.100  1.00  0.00     0.300 C 
HETATM   14  O   UNL     1      63.385   9.801   5.786  1.00  0.00    -0.259 OA
BRANCH  13  15
HETATM   15  O   UNL     1      63.379   8.747   3.763  1.00  0.00    -0.317 OA
BRANCH  15  16
HETATM   16  C   UNL     1      62.075   9.195   3.372  1.00  0.00     0.174 C 
HETATM   17  C   UNL     1      62.108   9.486   1.882  1.00  0.00     0.034 C 
ENDBRANCH  15  16
ENDBRANCH  13  15
ENDBRANCH   3  13
TORSDOF 3
ENDMDL
MODEL 5
REMARK VINA RESULT:      -4.4      2.056      2.487
REMARK  3 active torsions:
REMARK  status: ('A' for Active; 'I' for Inactive)
REMARK    1  A    between atoms: C_3  and  C_9 
REMARK    2  A    between atoms: C_9  and  O_14 
REMARK    3  A    between atoms: O_14  and  C_16 
ROOT
HETATM    1  C   UNL     1      61.560   6.046   4.561  1.00  0.00     0.059 A 
HETATM    2  C   UNL     1      62.052   7.247   4.235  1.00  0.00     0.003 A 
HETATM    3  C   UNL     1      63.619   6.538   5.759  1.00  0.00     0.088 A 
HETATM    4  C   UNL     1      63.261   7.592   4.895  1.00  0.00    -0.026 A 
HETATM    5  S   UNL     1      62.469   5.229   5.686  1.00  0.00    -0.075 SA
HETATM    6  S   UNL     1      60.152   5.652   3.761  1.00  0.00    -0.070 SA
HETATM    7  C   UNL     1      60.174   7.175   2.936  1.00  0.00     0.093 A 
HETATM    8  C   UNL     1      61.279   7.962   3.283  1.00  0.00    -0.022 A 
HETATM    9  C   UNL     1      59.142   7.534   2.012  1.00  0.00     0.107 C 
HETATM   10  N   UNL     1      58.314   7.847   1.260  1.00  0.00    -0.191 NA
HETATM   11  C   UNL     1      64.035   8.856   4.693  1.00  0.00     0.050 C 
HETATM   12  C   UNL     1      61.568   9.324   2.738  1.00  0.00     0.051 C 
ENDROOT
BRANCH   3  13
HETATM   13  C   UNL     1      64.797   6.433   6.615  1.00  0.00     0.300 C 
HETATM   14  O   UNL     1      64.941   6.997   7.694  1.00  0.00    -0.259 OA
BRANCH  13  15
HETATM   15  O   UNL     1      65.776   5.683   6.027  1.00  0.00    -0.317 OA
BRANCH  15  16
HETATM   16  C   UNL     1      66.812   6.426   5.370  1.00  0.00     0.174 C 
HETATM   17  C   UNL     1      66.858   5.980   3.919  1.00  0.00     0.034 C 
ENDBRANCH  15  16
ENDBRANCH  13  15
ENDBRANCH   3  13
TORSDOF 3
ENDMDL
MODEL 6
REMARK VINA RESULT:      -4.4      2.720      3.245
REMARK  3 active torsions:
REMARK  status: ('A' for Active; 'I' for Inactive)
REMARK    1  A    between atoms: C_3  and  C_9 
REMARK    2  A    between atoms: C_9  and  O_14 
REMARK    3  A    between atoms: O_14  and  C_16 
ROOT
HETATM    1  C   UNL     1      61.413   6.645   5.188  1.00  0.00     0.059 A 
HETATM    2  C   UNL     1      61.297   7.387   4.080  1.00  0.00     0.003 A 
HETATM    3  C   UNL     1      63.158   8.333   5.038  1.00  0.00     0.088 A 
HETATM    4  C   UNL     1      62.293   8.387   3.928  1.00  0.00    -0.026 A 
HETATM    5  S   UNL     1      62.694   7.076   6.154  1.00  0.00    -0.075 SA
HETATM    6  S   UNL     1      60.246   5.465   5.338  1.00  0.00    -0.070 SA
HETATM    7  C   UNL     1      59.520   5.969   3.849  1.00  0.00     0.093 A 
HETATM    8  C   UNL     1      60.199   7.038   3.250  1.00  0.00    -0.022 A 
HETATM    9  C   UNL     1      58.349   5.324   3.337  1.00  0.00     0.107 C 
HETATM   10  N   UNL     1      57.398   4.818   2.905  1.00  0.00    -0.191 NA
HETATM   11  C   UNL     1      62.414   9.329   2.773  1.00  0.00     0.050 C 
HETATM   12  C   UNL     1      59.810   7.689   1.961  1.00  0.00     0.051 C 
ENDROOT
BRANCH   3  13
HETATM   13  C   UNL     1      64.343   9.147   5.300  1.00  0.00     0.300 C 
HETATM   14  O   UNL     1      64.338  10.258   5.819  1.00  0.00    -0.259 OA
BRANCH  13  15
HETATM   15  O   UNL     1      65.474   8.551   4.819  1.00  0.00    -0.317 OA
BRANCH  15  16
HETATM   16  C   UNL     1      66.373   8.039   5.811  1.00  0.00     0.174 C 
HETATM   17  C   UNL     1      67.221   6.960   5.162  1.00  0.00     0.034 C 
ENDBRANCH  15  16
ENDBRANCH  13  15
ENDBRANCH   3  13
TORSDOF 3
ENDMDL
MODEL 7
REMARK VINA RESULT:      -4.3      2.803      3.376
REMARK  3 active torsions:
REMARK  status: ('A' for Active; 'I' for Inactive)
REMARK    1  A    between atoms: C_3  and  C_9 
REMARK    2  A    between atoms: C_9  and  O_14 
REMARK    3  A    between atoms: O_14  and  C_16 
ROOT
HETATM    1  C   UNL     1      61.230   7.983   3.027  1.00  0.00     0.059 A 
HETATM    2  C   UNL     1      61.234   7.228   4.133  1.00  0.00     0.003 A 
HETATM    3  C   UNL     1      63.050   8.579   4.527  1.00  0.00     0.088 A 
HETATM    4  C   UNL     1      62.269   7.532   5.056  1.00  0.00    -0.026 A 
HETATM    5  S   UNL     1      62.456   9.103   2.974  1.00  0.00    -0.075 SA
HETATM    6  S   UNL     1      59.996   7.623   1.967  1.00  0.00    -0.070 SA
HETATM    7  C   UNL     1      59.431   6.371   3.021  1.00  0.00     0.093 A 
HETATM    8  C   UNL     1      60.199   6.257   4.187  1.00  0.00    -0.022 A 
HETATM    9  C   UNL     1      58.295   5.570   2.681  1.00  0.00     0.107 C 
HETATM   10  N   UNL     1      57.378   4.905   2.424  1.00  0.00    -0.191 NA
HETATM   11  C   UNL     1      62.484   6.864   6.377  1.00  0.00     0.050 C 
HETATM   12  C   UNL     1      59.956   5.270   5.283  1.00  0.00     0.051 C 
ENDROOT
BRANCH   3  13
HETATM   13  C   UNL     1      64.200   9.243   5.135  1.00  0.00     0.300 C 
HETATM   14  O   UNL     1      64.158  10.287   5.776  1.00  0.00    -0.259 OA
BRANCH  13  15
HETATM   15  O   UNL     1      65.366   8.598   4.834  1.00  0.00    -0.317 OA
BRANCH  15  16
HETATM   16  C   UNL     1      66.082   8.061   5.954  1.00  0.00     0.174 C 
HETATM   17  C   UNL     1      67.509   7.792   5.511  1.00  0.00     0.034 C 
ENDBRANCH  15  16
ENDBRANCH  13  15
ENDBRANCH   3  13
TORSDOF 3
ENDMDL
MODEL 8
REMARK VINA RESULT:      -4.2      2.647      3.528
REMARK  3 active torsions:
REMARK  status: ('A' for Active; 'I' for Inactive)
REMARK    1  A    between atoms: C_3  and  C_9 
REMARK    2  A    between atoms: C_9  and  O_14 
REMARK    3  A    between atoms: O_14  and  C_16 
ROOT
HETATM    1  C   UNL     1      63.619   8.054   5.116  1.00  0.00     0.059 A 
HETATM    2  C   UNL     1      63.381   7.639   3.866  1.00  0.00     0.003 A 
HETATM    3  C   UNL     1      64.315   5.748   4.775  1.00  0.00     0.088 A 
HETATM    4  C   UNL     1      63.757   6.296   3.603  1.00  0.00    -0.026 A 
HETATM    5  S   UNL     1      64.323   6.901   6.083  1.00  0.00    -0.075 SA
HETATM    6  S   UNL     1      63.152   9.626   5.408  1.00  0.00    -0.070 SA
HETATM    7  C   UNL     1      62.612   9.789   3.771  1.00  0.00     0.093 A 
HETATM    8  C   UNL     1      62.789   8.618   3.024  1.00  0.00    -0.022 A 
HETATM    9  C   UNL     1      62.053  11.016   3.292  1.00  0.00     0.107 C 
HETATM   10  N   UNL     1      61.601  12.003   2.880  1.00  0.00    -0.191 NA
HETATM   11  C   UNL     1      63.575   5.576   2.305  1.00  0.00     0.050 C 
HETATM   12  C   UNL     1      62.420   8.453   1.584  1.00  0.00     0.051 C 
ENDROOT
BRANCH   3  13
HETATM   13  C   UNL     1      64.812   4.391   4.990  1.00  0.00     0.300 C 
HETATM   14  O   UNL     1      64.112   3.399   5.159  1.00  0.00    -0.259 OA
BRANCH  13  15
HETATM   15  O   UNL     1      66.175   4.365   5.063  1.00  0.00    -0.317 OA
BRANCH  15  16
HETATM   16  C   UNL     1      66.719   3.908   6.309  1.00  0.00     0.174 C 
HETATM   17  C   UNL     1      67.802   4.884   6.732  1.00  0.00     0.034 C 
ENDBRANCH  15  16
ENDBRANCH  13  15
ENDBRANCH   3  13
TORSDOF 3
ENDMDL
MODEL 9
REMARK VINA RESULT:      -4.2      2.251      2.376
REMARK  3 active torsions:
REMARK  status: ('A' for Active; 'I' for Inactive)
REMARK    1  A    between atoms: C_3  and  C_9 
REMARK    2  A    between atoms: C_9  and  O_14 
REMARK    3  A    between atoms: O_14  and  C_16 
ROOT
HETATM    1  C   UNL     1      62.721   5.758   5.544  1.00  0.00     0.059 A 
HETATM    2  C   UNL     1      63.020   7.007   5.168  1.00  0.00     0.003 A 
HETATM    3  C   UNL     1      65.015   6.349   6.099  1.00  0.00     0.088 A 
HETATM    4  C   UNL     1      64.350   7.412   5.456  1.00  0.00    -0.026 A 
HETATM    5  S   UNL     1      63.976   4.960   6.286  1.00  0.00    -0.075 SA
HETATM    6  S   UNL     1      61.162   5.296   5.180  1.00  0.00    -0.070 SA
HETATM    7  C   UNL     1      60.843   6.853   4.492  1.00  0.00     0.093 A 
HETATM    8  C   UNL     1      61.953   7.705   4.543  1.00  0.00    -0.022 A 
HETATM    9  C   UNL     1      59.560   7.175   3.946  1.00  0.00     0.107 C 
HETATM   10  N   UNL     1      58.526   7.460   3.501  1.00  0.00    -0.191 NA
HETATM   11  C   UNL     1      64.951   8.739   5.117  1.00  0.00     0.050 C 
HETATM   12  C   UNL     1      61.983   9.109   4.029  1.00  0.00     0.051 C 
ENDROOT
BRANCH   3  13
HETATM   13  C   UNL     1      66.402   6.294   6.552  1.00  0.00     0.300 C 
HETATM   14  O   UNL     1      67.302   5.668   6.003  1.00  0.00    -0.259 OA
BRANCH  13  15
HETATM   15  O   UNL     1      66.570   6.967   7.729  1.00  0.00    -0.317 OA
BRANCH  15  16
HETATM   16  C   UNL     1      66.567   6.156   8.911  1.00  0.00     0.174 C 
HETATM   17  C   UNL     1      68.011   5.861   9.279  1.00  0.00     0.034 C 
ENDBRANCH  15  16
ENDBRANCH  13  15
ENDBRANCH   3  13
TORSDOF 3
ENDMDL
