MODEL 1
REMARK VINA RESULT:      -4.9      0.000      0.000
REMARK  2 active torsions:
REMARK  status: ('A' for Active; 'I' for Inactive)
REMARK    1  A    between atoms: C_4  and  S_12 
REMARK    2  A    between atoms: N_10  and  O_13 
ROOT
HETATM    1  C   UNL     1      65.045   7.268   4.144  1.00  0.00     0.019 A 
HETATM    2  C   UNL     1      64.375   6.449   3.139  1.00  0.00    -0.037 A 
HETATM    3  C   UNL     1      64.371   8.491   4.620  1.00  0.00     0.045 C 
HETATM    4  C   UNL     1      66.307   6.723   4.407  1.00  0.00     0.053 A 
HETATM    5  S   UNL     1      66.559   5.214   3.603  1.00  0.00    -0.093 SA
HETATM    6  C   UNL     1      65.080   5.312   2.809  1.00  0.00     0.059 A 
HETATM    7  C   UNL     1      63.084   6.771   2.459  1.00  0.00     0.049 C 
HETATM    8  C   UNL     1      62.326   8.015   2.952  1.00  0.00    -0.038 C 
HETATM    9  C   UNL     1      63.132   8.980   3.845  1.00  0.00     0.069 C 
HETATM   10  N   UNL     1      64.656   9.296   5.600  1.00  0.00    -0.273 N 
ATOM     11  HN  UNL     1      64.138  10.163   5.749  1.00  0.00     0.194 HD
HETATM   12  C   UNL     1      61.050   7.556   3.692  1.00  0.00     0.015 C 
HETATM   13  C   UNL     1      61.863   8.819   1.712  1.00  0.00     0.015 C 
ENDROOT
BRANCH  10  14
HETATM   14  O   UNL     1      65.694   8.919   6.427  1.00  0.00    -0.290 OA
HETATM   15  H   UNL     1      65.666   9.130   7.340  1.00  0.00     0.244 HD
ENDBRANCH  10  14
BRANCH   4  16
HETATM   16  S   UNL     1      67.705   7.340   5.304  1.00  0.00    -0.126 SA
HETATM   17  C   UNL     1      67.805   6.114   6.636  1.00  0.00     0.096 C 
ENDBRANCH   4  16
TORSDOF 2
ENDMDL
MODEL 2
REMARK VINA RESULT:      -4.6      2.268      4.666
REMARK  2 active torsions:
REMARK  status: ('A' for Active; 'I' for Inactive)
REMARK    1  A    between atoms: C_4  and  S_12 
REMARK    2  A    between atoms: N_10  and  O_13 
ROOT
HETATM    1  C   UNL     1      64.167   7.556   3.977  1.00  0.00     0.019 A 
HETATM    2  C   UNL     1      65.102   6.501   3.598  1.00  0.00    -0.037 A 
HETATM    3  C   UNL     1      64.546   8.475   5.068  1.00  0.00     0.045 C 
HETATM    4  C   UNL     1      62.994   7.415   3.226  1.00  0.00     0.053 A 
HETATM    5  S   UNL     1      63.122   6.184   2.021  1.00  0.00    -0.093 SA
HETATM    6  C   UNL     1      64.658   5.737   2.541  1.00  0.00     0.059 A 
HETATM    7  C   UNL     1      66.399   6.191   4.272  1.00  0.00     0.049 C 
HETATM    8  C   UNL     1      66.854   7.148   5.387  1.00  0.00    -0.038 C 
HETATM    9  C   UNL     1      65.777   8.114   5.920  1.00  0.00     0.069 C 
HETATM   10  N   UNL     1      63.992   9.573   5.489  1.00  0.00    -0.273 N 
ATOM     11  HN  UNL     1      64.326  10.055   6.324  1.00  0.00     0.194 HD
HETATM   12  C   UNL     1      68.075   7.950   4.882  1.00  0.00     0.015 C 
HETATM   13  C   UNL     1      67.338   6.295   6.585  1.00  0.00     0.015 C 
ENDROOT
BRANCH  10  14
HETATM   14  O   UNL     1      62.930  10.053   4.749  1.00  0.00    -0.290 OA
HETATM   15  H   UNL     1      62.566  10.894   4.944  1.00  0.00     0.244 HD
ENDBRANCH  10  14
BRANCH   4  16
HETATM   16  S   UNL     1      61.399   8.177   3.358  1.00  0.00    -0.126 SA
HETATM   17  C   UNL     1      61.282   8.970   1.733  1.00  0.00     0.096 C 
ENDBRANCH   4  16
TORSDOF 2
ENDMDL
MODEL 3
REMARK VINA RESULT:      -4.4      3.638      4.774
REMARK  2 active torsions:
REMARK  status: ('A' for Active; 'I' for Inactive)
REMARK    1  A    between atoms: C_4  and  S_12 
REMARK    2  A    between atoms: N_10  and  O_13 
ROOT
HETATM    1  C   UNL     1      61.029   7.279   4.429  1.00  0.00     0.019 A 
HETATM    2  C   UNL     1      60.171   7.503   3.270  1.00  0.00    -0.037 A 
HETATM    3  C   UNL     1      62.375   7.884   4.436  1.00  0.00     0.045 C 
HETATM    4  C   UNL     1      60.379   6.413   5.316  1.00  0.00     0.053 A 
HETATM    5  S   UNL     1      58.760   6.058   4.829  1.00  0.00    -0.093 SA
HETATM    6  C   UNL     1      58.926   6.927   3.399  1.00  0.00     0.059 A 
HETATM    7  C   UNL     1      60.551   8.228   2.020  1.00  0.00     0.049 C 
HETATM    8  C   UNL     1      61.929   8.911   1.999  1.00  0.00    -0.038 C 
HETATM    9  C   UNL     1      62.900   8.491   3.122  1.00  0.00     0.069 C 
HETATM   10  N   UNL     1      63.262   7.981   5.382  1.00  0.00    -0.273 N 
ATOM     11  HN  UNL     1      64.195   8.353   5.205  1.00  0.00     0.194 HD
HETATM   12  C   UNL     1      61.722  10.442   2.029  1.00  0.00     0.015 C 
HETATM   13  C   UNL     1      62.612   8.574   0.652  1.00  0.00     0.015 C 
ENDROOT
BRANCH  10  14
HETATM   14  O   UNL     1      62.877   7.553   6.636  1.00  0.00    -0.290 OA
HETATM   15  H   UNL     1      62.521   8.165   7.251  1.00  0.00     0.244 HD
ENDBRANCH  10  14
BRANCH   4  16
HETATM   16  S   UNL     1      60.940   5.544   6.756  1.00  0.00    -0.126 SA
HETATM   17  C   UNL     1      59.369   4.878   7.366  1.00  0.00     0.096 C 
ENDBRANCH   4  16
TORSDOF 2
ENDMDL
MODEL 4
REMARK VINA RESULT:      -4.4      3.303      5.394
REMARK  2 active torsions:
REMARK  status: ('A' for Active; 'I' for Inactive)
REMARK    1  A    between atoms: C_4  and  S_12 
REMARK    2  A    between atoms: N_10  and  O_13 
ROOT
HETATM    1  C   UNL     1      63.579   7.948   3.489  1.00  0.00     0.019 A 
HETATM    2  C   UNL     1      64.007   8.708   4.660  1.00  0.00    -0.037 A 
HETATM    3  C   UNL     1      64.345   6.745   3.112  1.00  0.00     0.045 C 
HETATM    4  C   UNL     1      62.505   8.611   2.884  1.00  0.00     0.053 A 
HETATM    5  S   UNL     1      61.959   9.967   3.805  1.00  0.00    -0.093 SA
HETATM    6  C   UNL     1      63.188   9.781   4.937  1.00  0.00     0.059 A 
HETATM    7  C   UNL     1      65.220   8.438   5.489  1.00  0.00     0.049 C 
HETATM    8  C   UNL     1      66.026   7.171   5.158  1.00  0.00    -0.038 C 
HETATM    9  C   UNL     1      65.700   6.505   3.805  1.00  0.00     0.069 C 
HETATM   10  N   UNL     1      64.098   5.816   2.237  1.00  0.00    -0.273 N 
ATOM     11  HN  UNL     1      64.778   5.085   2.025  1.00  0.00     0.194 HD
HETATM   12  C   UNL     1      65.836   6.151   6.304  1.00  0.00     0.015 C 
HETATM   13  C   UNL     1      67.527   7.548   5.133  1.00  0.00     0.015 C 
ENDROOT
BRANCH  10  14
HETATM   14  O   UNL     1      62.869   5.868   1.611  1.00  0.00    -0.290 OA
HETATM   15  H   UNL     1      62.383   6.669   1.599  1.00  0.00     0.244 HD
ENDBRANCH  10  14
BRANCH   4  16
HETATM   16  S   UNL     1      61.694   8.385   1.324  1.00  0.00    -0.126 SA
HETATM   17  C   UNL     1      60.064   7.824   1.883  1.00  0.00     0.096 C 
ENDBRANCH   4  16
TORSDOF 2
ENDMDL
MODEL 5
REMARK VINA RESULT:      -4.2      2.369      3.181
REMARK  2 active torsions:
REMARK  status: ('A' for Active; 'I' for Inactive)
REMARK    1  A    between atoms: C_4  and  S_12 
REMARK    2  A    between atoms: N_10  and  O_13 
ROOT
HETATM    1  C   UNL     1      64.345   7.026   3.591  1.00  0.00     0.019 A 
HETATM    2  C   UNL     1      63.699   8.285   3.952  1.00  0.00    -0.037 A 
HETATM    3  C   UNL     1      63.837   6.282   2.423  1.00  0.00     0.045 C 
HETATM    4  C   UNL     1      65.329   6.731   4.543  1.00  0.00     0.053 A 
HETATM    5  S   UNL     1      65.552   8.009   5.684  1.00  0.00    -0.093 SA
HETATM    6  C   UNL     1      64.290   8.907   5.029  1.00  0.00     0.059 A 
HETATM    7  C   UNL     1      62.492   8.873   3.297  1.00  0.00     0.049 C 
HETATM    8  C   UNL     1      61.952   8.154   2.049  1.00  0.00    -0.038 C 
HETATM    9  C   UNL     1      62.496   6.730   1.810  1.00  0.00     0.069 C 
HETATM   10  N   UNL     1      64.313   5.247   1.797  1.00  0.00    -0.273 N 
ATOM     11  HN  UNL     1      63.792   4.787   1.051  1.00  0.00     0.194 HD
HETATM   12  C   UNL     1      62.229   9.037   0.812  1.00  0.00     0.015 C 
HETATM   13  C   UNL     1      60.415   8.039   2.188  1.00  0.00     0.015 C 
ENDROOT
BRANCH  10  14
HETATM   14  O   UNL     1      65.558   4.804   2.194  1.00  0.00    -0.290 OA
HETATM   15  H   UNL     1      65.793   3.904   2.081  1.00  0.00     0.244 HD
ENDBRANCH  10  14
BRANCH   4  16
HETATM   16  S   UNL     1      66.287   5.272   4.849  1.00  0.00    -0.126 SA
HETATM   17  C   UNL     1      67.607   5.960   5.883  1.00  0.00     0.096 C 
ENDBRANCH   4  16
TORSDOF 2
ENDMDL
MODEL 6
REMARK VINA RESULT:      -4.1      2.585      3.302
REMARK  2 active torsions:
REMARK  status: ('A' for Active; 'I' for Inactive)
REMARK    1  A    between atoms: C_4  and  S_12 
REMARK    2  A    between atoms: N_10  and  O_13 
ROOT
HETATM    1  C   UNL     1      65.058   6.442   5.956  1.00  0.00     0.019 A 
HETATM    2  C   UNL     1      65.662   7.617   5.336  1.00  0.00    -0.037 A 
HETATM    3  C   UNL     1      63.586   6.355   6.017  1.00  0.00     0.045 C 
HETATM    4  C   UNL     1      66.073   5.624   6.466  1.00  0.00     0.053 A 
HETATM    5  S   UNL     1      67.652   6.185   6.044  1.00  0.00    -0.093 SA
HETATM    6  C   UNL     1      67.038   7.562   5.297  1.00  0.00     0.059 A 
HETATM    7  C   UNL     1      64.930   8.813   4.819  1.00  0.00     0.049 C 
HETATM    8  C   UNL     1      63.394   8.750   4.825  1.00  0.00    -0.038 C 
HETATM    9  C   UNL     1      62.774   7.618   5.669  1.00  0.00     0.069 C 
HETATM   10  N   UNL     1      62.802   5.376   6.357  1.00  0.00    -0.273 N 
ATOM     11  HN  UNL     1      61.792   5.500   6.436  1.00  0.00     0.194 HD
HETATM   12  C   UNL     1      62.898   8.648   3.365  1.00  0.00     0.015 C 
HETATM   13  C   UNL     1      62.860  10.088   5.391  1.00  0.00     0.015 C 
ENDROOT
BRANCH  10  14
HETATM   14  O   UNL     1      63.405   4.159   6.605  1.00  0.00    -0.290 OA
HETATM   15  H   UNL     1      63.314   3.457   5.991  1.00  0.00     0.244 HD
ENDBRANCH  10  14
BRANCH   4  16
HETATM   16  S   UNL     1      66.037   4.213   7.537  1.00  0.00    -0.126 SA
HETATM   17  C   UNL     1      67.360   4.650   8.697  1.00  0.00     0.096 C 
ENDBRANCH   4  16
TORSDOF 2
ENDMDL
MODEL 7
REMARK VINA RESULT:      -4.1      4.408      6.052
REMARK  2 active torsions:
REMARK  status: ('A' for Active; 'I' for Inactive)
REMARK    1  A    between atoms: C_4  and  S_12 
REMARK    2  A    between atoms: N_10  and  O_13 
ROOT
HETATM    1  C   UNL     1      60.480   7.000   4.380  1.00  0.00     0.019 A 
HETATM    2  C   UNL     1      61.459   6.396   5.278  1.00  0.00    -0.037 A 
HETATM    3  C   UNL     1      60.956   7.940   3.348  1.00  0.00     0.045 C 
HETATM    4  C   UNL     1      59.197   6.591   4.765  1.00  0.00     0.053 A 
HETATM    5  S   UNL     1      59.228   5.408   6.024  1.00  0.00    -0.093 SA
HETATM    6  C   UNL     1      60.901   5.503   6.167  1.00  0.00     0.059 A 
HETATM    7  C   UNL     1      62.921   6.702   5.319  1.00  0.00     0.049 C 
HETATM    8  C   UNL     1      63.470   7.644   4.235  1.00  0.00    -0.038 C 
HETATM    9  C   UNL     1      62.411   8.437   3.440  1.00  0.00     0.069 C 
HETATM   10  N   UNL     1      60.341   8.483   2.339  1.00  0.00    -0.273 N 
ATOM     11  HN  UNL     1      60.788   9.194   1.759  1.00  0.00     0.194 HD
HETATM   12  C   UNL     1      64.349   6.824   3.265  1.00  0.00     0.015 C 
HETATM   13  C   UNL     1      64.396   8.678   4.920  1.00  0.00     0.015 C 
ENDROOT
BRANCH  10  14
HETATM   14  O   UNL     1      59.054   8.050   2.094  1.00  0.00    -0.290 OA
HETATM   15  H   UNL     1      58.410   8.087   2.774  1.00  0.00     0.244 HD
ENDBRANCH  10  14
BRANCH   4  16
HETATM   16  S   UNL     1      57.581   7.137   4.285  1.00  0.00    -0.126 SA
HETATM   17  C   UNL     1      56.685   6.915   5.844  1.00  0.00     0.096 C 
ENDBRANCH   4  16
TORSDOF 2
ENDMDL
MODEL 8
REMARK VINA RESULT:      -3.9      4.360      6.125
REMARK  2 active torsions:
REMARK  status: ('A' for Active; 'I' for Inactive)
REMARK    1  A    between atoms: C_4  and  S_12 
REMARK    2  A    between atoms: N_10  and  O_13 
ROOT
HETATM    1  C   UNL     1      60.555   7.433   3.003  1.00  0.00     0.019 A 
HETATM    2  C   UNL     1      61.488   8.344   2.347  1.00  0.00    -0.037 A 
HETATM    3  C   UNL     1      60.818   7.041   4.401  1.00  0.00     0.045 C 
HETATM    4  C   UNL     1      59.583   7.034   2.078  1.00  0.00     0.053 A 
HETATM    5  S   UNL     1      59.717   7.871   0.572  1.00  0.00    -0.093 SA
HETATM    6  C   UNL     1      61.113   8.671   1.062  1.00  0.00     0.059 A 
HETATM    7  C   UNL     1      62.760   8.869   2.928  1.00  0.00     0.049 C 
HETATM    8  C   UNL     1      63.055   8.520   4.397  1.00  0.00    -0.038 C 
HETATM    9  C   UNL     1      62.190   7.396   5.004  1.00  0.00     0.069 C 
HETATM   10  N   UNL     1      60.086   6.391   5.257  1.00  0.00    -0.273 N 
ATOM     11  HN  UNL     1      60.448   6.115   6.170  1.00  0.00     0.194 HD
HETATM   12  C   UNL     1      62.919   9.804   5.246  1.00  0.00     0.015 C 
HETATM   13  C   UNL     1      64.531   8.066   4.497  1.00  0.00     0.015 C 
ENDROOT
BRANCH  10  14
HETATM   14  O   UNL     1      58.796   6.094   4.867  1.00  0.00    -0.290 OA
HETATM   15  H   UNL     1      58.633   5.747   4.012  1.00  0.00     0.244 HD
ENDBRANCH  10  14
BRANCH   4  16
HETATM   16  S   UNL     1      58.336   5.775   2.131  1.00  0.00    -0.126 SA
HETATM   17  C   UNL     1      56.853   6.772   1.827  1.00  0.00     0.096 C 
ENDBRANCH   4  16
TORSDOF 2
ENDMDL
MODEL 9
REMARK VINA RESULT:      -3.9     12.695     14.058
REMARK  2 active torsions:
REMARK  status: ('A' for Active; 'I' for Inactive)
REMARK    1  A    between atoms: C_4  and  S_12 
REMARK    2  A    between atoms: N_10  and  O_13 
ROOT
HETATM    1  C   UNL     1      55.591   2.346  12.270  1.00  0.00     0.019 A 
HETATM    2  C   UNL     1      56.537   1.756  11.328  1.00  0.00    -0.037 A 
HETATM    3  C   UNL     1      55.877   2.241  13.714  1.00  0.00     0.045 C 
HETATM    4  C   UNL     1      54.498   2.853  11.559  1.00  0.00     0.053 A 
HETATM    5  S   UNL     1      54.721   2.766   9.848  1.00  0.00    -0.093 SA
HETATM    6  C   UNL     1      56.186   1.958  10.011  1.00  0.00     0.059 A 
HETATM    7  C   UNL     1      57.753   0.963  11.682  1.00  0.00     0.049 C 
HETATM    8  C   UNL     1      58.113   0.862  13.174  1.00  0.00    -0.038 C 
HETATM    9  C   UNL     1      57.007   1.294  14.159  1.00  0.00     0.069 C 
HETATM   10  N   UNL     1      55.307   2.800  14.740  1.00  0.00    -0.273 N 
ATOM     11  HN  UNL     1      55.564   2.555  15.696  1.00  0.00     0.194 HD
HETATM   12  C   UNL     1      59.395   1.687  13.429  1.00  0.00     0.015 C 
HETATM   13  C   UNL     1      58.455  -0.614  13.487  1.00  0.00     0.015 C 
ENDROOT
BRANCH  10  14
HETATM   14  O   UNL     1      54.335   3.743  14.469  1.00  0.00    -0.290 OA
HETATM   15  H   UNL     1      53.537   3.747  14.960  1.00  0.00     0.244 HD
ENDBRANCH  10  14
BRANCH   4  16
HETATM   16  S   UNL     1      52.914   3.453  12.082  1.00  0.00    -0.126 SA
HETATM   17  C   UNL     1      52.084   1.888  12.469  1.00  0.00     0.096 C 
ENDBRANCH   4  16
TORSDOF 2
ENDMDL
