MODEL 1
REMARK VINA RESULT:      -4.4      0.000      0.000
REMARK  3 active torsions:
REMARK  status: ('A' for Active; 'I' for Inactive)
REMARK    1  A    between atoms: S_1  and  C_2 
REMARK    2  A    between atoms: S_1  and  C_3 
REMARK    3  A    between atoms: C_3  and  C_5 
ROOT
HETATM    1  S   UNL     1      63.838   8.566   5.356  1.00  0.00     0.188 S 
HETATM    2  O   UNL     1      62.818   8.083   6.260  1.00  0.00    -0.222 OA
HETATM    3  O   UNL     1      64.655   9.723   5.676  1.00  0.00    -0.222 OA
ENDROOT
BRANCH   1   4
HETATM    4  C   UNL     1      62.976   9.045   3.874  1.00  0.00     0.100 A 
HETATM    5  S   UNL     1      62.212  10.575   3.877  1.00  0.00    -0.090 SA
HETATM    6  C   UNL     1      61.714  10.402   2.248  1.00  0.00     0.051 A 
HETATM    7  C   UNL     1      62.105   9.195   1.714  1.00  0.00     0.009 A 
HETATM    8  C   UNL     1      62.830   8.410   2.654  1.00  0.00     0.031 A 
ENDBRANCH   1   4
BRANCH   1   9
HETATM    9  C   UNL     1      64.917   7.244   4.874  1.00  0.00     0.215 C 
BRANCH   9  10
HETATM   10  C   UNL     1      65.993   7.079   5.915  1.00  0.00     0.085 C 
HETATM   11  S   UNL     1      67.604   6.903   5.520  1.00  0.00    -0.065 SA
HETATM   12  N   UNL     1      65.631   7.168   7.228  1.00  0.00    -0.393 N 
HETATM   13  H   UNL     1      64.682   7.272   7.471  1.00  0.00     0.156 HD
HETATM   14  H   UNL     1      66.318   7.129   7.932  1.00  0.00     0.156 HD
ENDBRANCH   9  10
ENDBRANCH   1   9
TORSDOF 3
ENDMDL
MODEL 2
REMARK VINA RESULT:      -4.3      1.794      2.072
REMARK  3 active torsions:
REMARK  status: ('A' for Active; 'I' for Inactive)
REMARK    1  A    between atoms: S_1  and  C_2 
REMARK    2  A    between atoms: S_1  and  C_3 
REMARK    3  A    between atoms: C_3  and  C_5 
ROOT
HETATM    1  S   UNL     1      64.787   8.036   5.799  1.00  0.00     0.188 S 
HETATM    2  O   UNL     1      64.002   7.337   6.792  1.00  0.00    -0.222 OA
HETATM    3  O   UNL     1      65.855   8.946   6.172  1.00  0.00    -0.222 OA
ENDROOT
BRANCH   1   4
HETATM    4  C   UNL     1      63.633   9.067   4.916  1.00  0.00     0.100 A 
HETATM    5  S   UNL     1      62.999   8.451   3.453  1.00  0.00    -0.090 SA
HETATM    6  C   UNL     1      61.993   9.820   3.237  1.00  0.00     0.051 A 
HETATM    7  C   UNL     1      62.149  10.739   4.249  1.00  0.00     0.009 A 
HETATM    8  C   UNL     1      63.098  10.306   5.217  1.00  0.00     0.031 A 
ENDBRANCH   1   4
BRANCH   1   9
HETATM    9  C   UNL     1      65.424   6.898   4.598  1.00  0.00     0.215 C 
BRANCH   9  10
HETATM   10  C   UNL     1      66.884   6.654   4.875  1.00  0.00     0.085 C 
HETATM   11  S   UNL     1      67.425   5.335   5.742  1.00  0.00    -0.065 SA
HETATM   12  N   UNL     1      67.793   7.504   4.312  1.00  0.00    -0.393 N 
HETATM   13  H   UNL     1      67.483   8.285   3.798  1.00  0.00     0.156 HD
HETATM   14  H   UNL     1      68.757   7.337   4.420  1.00  0.00     0.156 HD
ENDBRANCH   9  10
ENDBRANCH   1   9
TORSDOF 3
ENDMDL
MODEL 3
REMARK VINA RESULT:      -4.1      2.127      5.101
REMARK  3 active torsions:
REMARK  status: ('A' for Active; 'I' for Inactive)
REMARK    1  A    between atoms: S_1  and  C_2 
REMARK    2  A    between atoms: S_1  and  C_3 
REMARK    3  A    between atoms: C_3  and  C_5 
ROOT
HETATM    1  S   UNL     1      64.875   7.903   5.862  1.00  0.00     0.188 S 
HETATM    2  O   UNL     1      65.780   8.998   6.133  1.00  0.00    -0.222 OA
HETATM    3  O   UNL     1      63.983   7.379   6.881  1.00  0.00    -0.222 OA
ENDROOT
BRANCH   1   4
HETATM    4  C   UNL     1      65.913   6.517   5.447  1.00  0.00     0.100 A 
HETATM    5  S   UNL     1      66.085   6.141   3.788  1.00  0.00    -0.090 SA
HETATM    6  C   UNL     1      67.189   4.875   4.122  1.00  0.00     0.051 A 
HETATM    7  C   UNL     1      67.411   4.727   5.472  1.00  0.00     0.009 A 
HETATM    8  C   UNL     1      66.672   5.673   6.237  1.00  0.00     0.031 A 
ENDBRANCH   1   4
BRANCH   1   9
HETATM    9  C   UNL     1      63.918   8.234   4.406  1.00  0.00     0.215 C 
BRANCH   9  10
HETATM   10  C   UNL     1      63.066   9.453   4.642  1.00  0.00     0.085 C 
HETATM   11  S   UNL     1      61.963  10.008   3.519  1.00  0.00    -0.065 SA
HETATM   12  N   UNL     1      63.147  10.064   5.860  1.00  0.00    -0.393 N 
HETATM   13  H   UNL     1      63.794   9.743   6.529  1.00  0.00     0.156 HD
HETATM   14  H   UNL     1      62.557  10.824   6.070  1.00  0.00     0.156 HD
ENDBRANCH   9  10
ENDBRANCH   1   9
TORSDOF 3
ENDMDL
MODEL 4
REMARK VINA RESULT:      -4.1      1.027      1.244
REMARK  3 active torsions:
REMARK  status: ('A' for Active; 'I' for Inactive)
REMARK    1  A    between atoms: S_1  and  C_2 
REMARK    2  A    between atoms: S_1  and  C_3 
REMARK    3  A    between atoms: C_3  and  C_5 
ROOT
HETATM    1  S   UNL     1      63.563   7.773   5.438  1.00  0.00     0.188 S 
HETATM    2  O   UNL     1      63.458   6.458   4.844  1.00  0.00    -0.222 OA
HETATM    3  O   UNL     1      62.911   8.097   6.694  1.00  0.00    -0.222 OA
ENDROOT
BRANCH   1   4
HETATM    4  C   UNL     1      62.817   8.887   4.266  1.00  0.00     0.100 A 
HETATM    5  S   UNL     1      62.566  10.500   4.776  1.00  0.00    -0.090 SA
HETATM    6  C   UNL     1      61.955  10.958   3.243  1.00  0.00     0.051 A 
HETATM    7  C   UNL     1      61.925   9.901   2.363  1.00  0.00     0.009 A 
HETATM    8  C   UNL     1      62.419   8.704   2.954  1.00  0.00     0.031 A 
ENDBRANCH   1   4
BRANCH   1   9
HETATM    9  C   UNL     1      65.261   8.269   5.552  1.00  0.00     0.215 C 
BRANCH   9  10
HETATM   10  C   UNL     1      66.043   7.194   6.261  1.00  0.00     0.085 C 
HETATM   11  S   UNL     1      67.620   6.821   5.863  1.00  0.00    -0.065 SA
HETATM   12  N   UNL     1      65.456   6.573   7.326  1.00  0.00    -0.393 N 
HETATM   13  H   UNL     1      64.526   6.787   7.568  1.00  0.00     0.156 HD
HETATM   14  H   UNL     1      65.962   5.912   7.851  1.00  0.00     0.156 HD
ENDBRANCH   9  10
ENDBRANCH   1   9
TORSDOF 3
ENDMDL
MODEL 5
REMARK VINA RESULT:      -3.9      2.687      6.001
REMARK  3 active torsions:
REMARK  status: ('A' for Active; 'I' for Inactive)
REMARK    1  A    between atoms: S_1  and  C_2 
REMARK    2  A    between atoms: S_1  and  C_3 
REMARK    3  A    between atoms: C_3  and  C_5 
ROOT
HETATM    1  S   UNL     1      66.174   7.826   5.973  1.00  0.00     0.188 S 
HETATM    2  O   UNL     1      66.875   7.542   4.740  1.00  0.00    -0.222 OA
HETATM    3  O   UNL     1      66.244   9.130   6.608  1.00  0.00    -0.222 OA
ENDROOT
BRANCH   1   4
HETATM    4  C   UNL     1      66.869   6.720   7.184  1.00  0.00     0.100 A 
HETATM    5  S   UNL     1      67.599   5.287   6.602  1.00  0.00    -0.090 SA
HETATM    6  C   UNL     1      68.075   4.813   8.178  1.00  0.00     0.051 A 
HETATM    7  C   UNL     1      67.672   5.718   9.133  1.00  0.00     0.009 A 
HETATM    8  C   UNL     1      66.972   6.818   8.559  1.00  0.00     0.031 A 
ENDBRANCH   1   4
BRANCH   1   9
HETATM    9  C   UNL     1      64.466   7.369   5.835  1.00  0.00     0.215 C 
BRANCH   9  10
HETATM   10  C   UNL     1      63.742   8.407   5.019  1.00  0.00     0.085 C 
HETATM   11  S   UNL     1      63.123   8.085   3.503  1.00  0.00    -0.065 SA
HETATM   12  N   UNL     1      63.512   9.625   5.591  1.00  0.00    -0.393 N 
HETATM   13  H   UNL     1      63.873   9.824   6.485  1.00  0.00     0.156 HD
HETATM   14  H   UNL     1      62.987  10.304   5.110  1.00  0.00     0.156 HD
ENDBRANCH   9  10
ENDBRANCH   1   9
TORSDOF 3
ENDMDL
MODEL 6
REMARK VINA RESULT:      -3.8      2.015      2.302
REMARK  3 active torsions:
REMARK  status: ('A' for Active; 'I' for Inactive)
REMARK    1  A    between atoms: S_1  and  C_2 
REMARK    2  A    between atoms: S_1  and  C_3 
REMARK    3  A    between atoms: C_3  and  C_5 
ROOT
HETATM    1  S   UNL     1      64.836   7.970   5.359  1.00  0.00     0.188 S 
HETATM    2  O   UNL     1      65.052   9.347   5.744  1.00  0.00    -0.222 OA
HETATM    3  O   UNL     1      65.638   7.328   4.333  1.00  0.00    -0.222 OA
ENDROOT
BRANCH   1   4
HETATM    4  C   UNL     1      63.179   7.909   4.709  1.00  0.00     0.100 A 
HETATM    5  S   UNL     1      62.631   9.278   3.843  1.00  0.00    -0.090 SA
HETATM    6  C   UNL     1      61.133   8.531   3.483  1.00  0.00     0.051 A 
HETATM    7  C   UNL     1      61.041   7.269   4.025  1.00  0.00     0.009 A 
HETATM    8  C   UNL     1      62.221   6.911   4.737  1.00  0.00     0.031 A 
ENDBRANCH   1   4
BRANCH   1   9
HETATM    9  C   UNL     1      64.825   6.920   6.789  1.00  0.00     0.215 C 
BRANCH   9  10
HETATM   10  C   UNL     1      66.187   6.948   7.431  1.00  0.00     0.085 C 
HETATM   11  S   UNL     1      66.640   5.870   8.623  1.00  0.00    -0.065 SA
HETATM   12  N   UNL     1      67.105   7.835   6.948  1.00  0.00    -0.393 N 
HETATM   13  H   UNL     1      66.848   8.475   6.245  1.00  0.00     0.156 HD
HETATM   14  H   UNL     1      68.024   7.836   7.301  1.00  0.00     0.156 HD
ENDBRANCH   9  10
ENDBRANCH   1   9
TORSDOF 3
ENDMDL
MODEL 7
REMARK VINA RESULT:      -3.6      1.906      2.104
REMARK  3 active torsions:
REMARK  status: ('A' for Active; 'I' for Inactive)
REMARK    1  A    between atoms: S_1  and  C_2 
REMARK    2  A    between atoms: S_1  and  C_3 
REMARK    3  A    between atoms: C_3  and  C_5 
ROOT
HETATM    1  S   UNL     1      63.769   8.068   5.930  1.00  0.00     0.188 S 
HETATM    2  O   UNL     1      62.652   8.035   6.848  1.00  0.00    -0.222 OA
HETATM    3  O   UNL     1      64.406   9.316   5.548  1.00  0.00    -0.222 OA
ENDROOT
BRANCH   1   4
HETATM    4  C   UNL     1      63.147   7.415   4.395  1.00  0.00     0.100 A 
HETATM    5  S   UNL     1      61.727   6.467   4.470  1.00  0.00    -0.090 SA
HETATM    6  C   UNL     1      61.683   6.281   2.768  1.00  0.00     0.051 A 
HETATM    7  C   UNL     1      62.739   6.913   2.152  1.00  0.00     0.009 A 
HETATM    8  C   UNL     1      63.587   7.565   3.092  1.00  0.00     0.031 A 
ENDBRANCH   1   4
BRANCH   1   9
HETATM    9  C   UNL     1      65.033   6.939   6.451  1.00  0.00     0.215 C 
BRANCH   9  10
HETATM   10  C   UNL     1      66.383   7.565   6.215  1.00  0.00     0.085 C 
HETATM   11  S   UNL     1      67.267   7.294   4.825  1.00  0.00    -0.065 SA
HETATM   12  N   UNL     1      66.846   8.455   7.141  1.00  0.00    -0.393 N 
HETATM   13  H   UNL     1      66.331   8.621   7.963  1.00  0.00     0.156 HD
HETATM   14  H   UNL     1      67.694   8.930   6.986  1.00  0.00     0.156 HD
ENDBRANCH   9  10
ENDBRANCH   1   9
TORSDOF 3
ENDMDL
MODEL 8
REMARK VINA RESULT:      -3.4      2.484      5.003
REMARK  3 active torsions:
REMARK  status: ('A' for Active; 'I' for Inactive)
REMARK    1  A    between atoms: S_1  and  C_2 
REMARK    2  A    between atoms: S_1  and  C_3 
REMARK    3  A    between atoms: C_3  and  C_5 
ROOT
HETATM    1  S   UNL     1      63.118   7.409   5.769  1.00  0.00     0.188 S 
HETATM    2  O   UNL     1      62.654   7.827   7.073  1.00  0.00    -0.222 OA
HETATM    3  O   UNL     1      62.802   6.098   5.230  1.00  0.00    -0.222 OA
ENDROOT
BRANCH   1   4
HETATM    4  C   UNL     1      64.896   7.416   5.867  1.00  0.00     0.100 A 
HETATM    5  S   UNL     1      65.607   6.574   7.175  1.00  0.00    -0.090 SA
HETATM    6  C   UNL     1      67.190   6.913   6.616  1.00  0.00     0.051 A 
HETATM    7  C   UNL     1      67.181   7.668   5.465  1.00  0.00     0.009 A 
HETATM    8  C   UNL     1      65.856   7.962   5.035  1.00  0.00     0.031 A 
ENDBRANCH   1   4
BRANCH   1   9
HETATM    9  C   UNL     1      62.703   8.623   4.544  1.00  0.00     0.215 C 
BRANCH   9  10
HETATM   10  C   UNL     1      62.250   7.924   3.289  1.00  0.00     0.085 C 
HETATM   11  S   UNL     1      60.654   7.897   2.804  1.00  0.00    -0.065 SA
HETATM   12  N   UNL     1      63.205   7.374   2.483  1.00  0.00    -0.393 N 
HETATM   13  H   UNL     1      64.149   7.385   2.761  1.00  0.00     0.156 HD
HETATM   14  H   UNL     1      62.949   6.966   1.625  1.00  0.00     0.156 HD
ENDBRANCH   9  10
ENDBRANCH   1   9
TORSDOF 3
ENDMDL
MODEL 9
REMARK VINA RESULT:      -3.4      2.617      5.503
REMARK  3 active torsions:
REMARK  status: ('A' for Active; 'I' for Inactive)
REMARK    1  A    between atoms: S_1  and  C_2 
REMARK    2  A    between atoms: S_1  and  C_3 
REMARK    3  A    between atoms: C_3  and  C_5 
ROOT
HETATM    1  S   UNL     1      64.736   7.806   5.904  1.00  0.00     0.188 S 
HETATM    2  O   UNL     1      65.290   9.136   5.777  1.00  0.00    -0.222 OA
HETATM    3  O   UNL     1      63.627   7.524   6.799  1.00  0.00    -0.222 OA
ENDROOT
BRANCH   1   4
HETATM    4  C   UNL     1      66.060   6.793   6.529  1.00  0.00     0.100 A 
HETATM    5  S   UNL     1      66.649   5.561   5.500  1.00  0.00    -0.090 SA
HETATM    6  C   UNL     1      67.854   5.105   6.629  1.00  0.00     0.051 A 
HETATM    7  C   UNL     1      67.800   5.863   7.776  1.00  0.00     0.009 A 
HETATM    8  C   UNL     1      66.762   6.836   7.720  1.00  0.00     0.031 A 
ENDBRANCH   1   4
BRANCH   1   9
HETATM    9  C   UNL     1      64.340   7.143   4.308  1.00  0.00     0.215 C 
BRANCH   9  10
HETATM   10  C   UNL     1      62.944   6.578   4.339  1.00  0.00     0.085 C 
HETATM   11  S   UNL     1      61.636   7.384   3.688  1.00  0.00    -0.065 SA
HETATM   12  N   UNL     1      62.774   5.321   4.843  1.00  0.00    -0.393 N 
HETATM   13  H   UNL     1      63.540   4.838   5.229  1.00  0.00     0.156 HD
HETATM   14  H   UNL     1      61.886   4.897   4.820  1.00  0.00     0.156 HD
ENDBRANCH   9  10
ENDBRANCH   1   9
TORSDOF 3
ENDMDL
