MODEL 1
REMARK VINA RESULT:      -5.1      0.000      0.000
REMARK  1 active torsions:
REMARK  status: ('A' for Active; 'I' for Inactive)
REMARK    1  A    between atoms: C_3  and  S_13 
ROOT
HETATM    1  C   UNL     1      63.683   8.386   4.068  1.00  0.00     0.042 A 
HETATM    2  C   UNL     1      63.749   7.017   3.574  1.00  0.00    -0.014 A 
HETATM    3  C   UNL     1      62.626   9.090   3.522  1.00  0.00     0.056 A 
HETATM    4  C   UNL     1      62.741   6.754   2.665  1.00  0.00     0.093 A 
HETATM    5  S   UNL     1      61.750   8.109   2.407  1.00  0.00    -0.071 SA
HETATM    6  C   UNL     1      64.651   8.840   5.069  1.00  0.00     0.162 C 
HETATM    7  C   UNL     1      62.520   5.500   2.004  1.00  0.00     0.107 C 
HETATM    8  N   UNL     1      62.367   4.470   1.492  1.00  0.00    -0.191 NA
HETATM    9  C   UNL     1      64.805   6.038   4.043  1.00  0.00     0.050 C 
HETATM   10  C   UNL     1      65.576   6.523   5.304  1.00  0.00    -0.037 C 
HETATM   11  C   UNL     1      65.923   8.018   5.146  1.00  0.00     0.093 C 
HETATM   12  O   UNL     1      64.468   9.776   5.836  1.00  0.00    -0.292 OA
HETATM   13  C   UNL     1      66.882   5.727   5.456  1.00  0.00     0.015 C 
HETATM   14  C   UNL     1      64.730   6.299   6.578  1.00  0.00     0.015 C 
ENDROOT
BRANCH   3  15
HETATM   15  S   UNL     1      62.021  10.723   3.812  1.00  0.00    -0.126 SA
HETATM   16  C   UNL     1      61.780  11.442   2.178  1.00  0.00     0.096 C 
ENDBRANCH   3  15
TORSDOF 1
ENDMDL
MODEL 2
REMARK VINA RESULT:      -4.9      2.889      3.787
REMARK  1 active torsions:
REMARK  status: ('A' for Active; 'I' for Inactive)
REMARK    1  A    between atoms: C_3  and  S_13 
ROOT
HETATM    1  C   UNL     1      64.029   7.250   3.567  1.00  0.00     0.042 A 
HETATM    2  C   UNL     1      64.187   8.209   4.652  1.00  0.00    -0.014 A 
HETATM    3  C   UNL     1      63.038   7.622   2.679  1.00  0.00     0.056 A 
HETATM    4  C   UNL     1      63.296   9.259   4.538  1.00  0.00     0.093 A 
HETATM    5  S   UNL     1      62.296   9.096   3.175  1.00  0.00    -0.071 SA
HETATM    6  C   UNL     1      64.913   6.084   3.500  1.00  0.00     0.162 C 
HETATM    7  C   UNL     1      63.201  10.374   5.436  1.00  0.00     0.107 C 
HETATM    8  N   UNL     1      63.155  11.264   6.180  1.00  0.00    -0.191 NA
HETATM    9  C   UNL     1      65.228   8.036   5.739  1.00  0.00     0.050 C 
HETATM   10  C   UNL     1      66.289   6.948   5.407  1.00  0.00    -0.037 C 
HETATM   11  C   UNL     1      65.584   5.713   4.808  1.00  0.00     0.093 C 
HETATM   12  O   UNL     1      65.156   5.457   2.476  1.00  0.00    -0.292 OA
HETATM   13  C   UNL     1      67.020   6.523   6.690  1.00  0.00     0.015 C 
HETATM   14  C   UNL     1      67.340   7.499   4.418  1.00  0.00     0.015 C 
ENDROOT
BRANCH   3  15
HETATM   15  S   UNL     1      62.480   6.905   1.165  1.00  0.00    -0.126 SA
HETATM   16  C   UNL     1      61.254   8.053   0.514  1.00  0.00     0.096 C 
ENDBRANCH   3  15
TORSDOF 1
ENDMDL
MODEL 3
REMARK VINA RESULT:      -4.8      2.528      3.336
REMARK  1 active torsions:
REMARK  status: ('A' for Active; 'I' for Inactive)
REMARK    1  A    between atoms: C_3  and  S_13 
ROOT
HETATM    1  C   UNL     1      64.723   7.026   6.133  1.00  0.00     0.042 A 
HETATM    2  C   UNL     1      64.536   5.654   6.588  1.00  0.00    -0.014 A 
HETATM    3  C   UNL     1      63.576   7.552   5.571  1.00  0.00     0.056 A 
HETATM    4  C   UNL     1      63.253   5.205   6.337  1.00  0.00     0.093 A 
HETATM    5  S   UNL     1      62.305   6.388   5.573  1.00  0.00    -0.071 SA
HETATM    6  C   UNL     1      66.013   7.687   6.344  1.00  0.00     0.162 C 
HETATM    7  C   UNL     1      62.744   3.906   6.674  1.00  0.00     0.107 C 
HETATM    8  N   UNL     1      62.363   2.849   6.965  1.00  0.00    -0.191 NA
HETATM    9  C   UNL     1      65.642   4.868   7.262  1.00  0.00     0.050 C 
HETATM   10  C   UNL     1      66.845   5.751   7.700  1.00  0.00    -0.037 C 
HETATM   11  C   UNL     1      67.183   6.749   6.573  1.00  0.00     0.093 C 
HETATM   12  O   UNL     1      66.170   8.901   6.389  1.00  0.00    -0.292 OA
HETATM   13  C   UNL     1      68.075   4.867   7.959  1.00  0.00     0.015 C 
HETATM   14  C   UNL     1      66.517   6.507   9.007  1.00  0.00     0.015 C 
ENDROOT
BRANCH   3  15
HETATM   15  S   UNL     1      63.200   9.159   4.943  1.00  0.00    -0.126 SA
HETATM   16  C   UNL     1      62.686   8.898   3.236  1.00  0.00     0.096 C 
ENDBRANCH   3  15
TORSDOF 1
ENDMDL
MODEL 4
REMARK VINA RESULT:      -4.8      2.920      4.131
REMARK  1 active torsions:
REMARK  status: ('A' for Active; 'I' for Inactive)
REMARK    1  A    between atoms: C_3  and  S_13 
ROOT
HETATM    1  C   UNL     1      62.528   6.818   4.681  1.00  0.00     0.042 A 
HETATM    2  C   UNL     1      62.880   8.229   4.582  1.00  0.00    -0.014 A 
HETATM    3  C   UNL     1      61.295   6.545   4.120  1.00  0.00     0.056 A 
HETATM    4  C   UNL     1      61.886   8.959   3.959  1.00  0.00     0.093 A 
HETATM    5  S   UNL     1      60.569   7.985   3.512  1.00  0.00    -0.071 SA
HETATM    6  C   UNL     1      63.476   5.878   5.282  1.00  0.00     0.162 C 
HETATM    7  C   UNL     1      61.928  10.369   3.696  1.00  0.00     0.107 C 
HETATM    8  N   UNL     1      61.997  11.510   3.494  1.00  0.00    -0.191 NA
HETATM    9  C   UNL     1      64.195   8.772   5.102  1.00  0.00     0.050 C 
HETATM   10  C   UNL     1      65.230   7.661   5.437  1.00  0.00    -0.037 C 
HETATM   11  C   UNL     1      64.521   6.510   6.182  1.00  0.00     0.093 C 
HETATM   12  O   UNL     1      63.490   4.673   5.064  1.00  0.00    -0.292 OA
HETATM   13  C   UNL     1      66.331   8.230   6.346  1.00  0.00     0.015 C 
HETATM   14  C   UNL     1      65.899   7.135   4.148  1.00  0.00     0.015 C 
ENDROOT
BRANCH   3  15
HETATM   15  S   UNL     1      60.417   5.033   3.880  1.00  0.00    -0.126 SA
HETATM   16  C   UNL     1      59.891   4.519   5.525  1.00  0.00     0.096 C 
ENDBRANCH   3  15
TORSDOF 1
ENDMDL
MODEL 5
REMARK VINA RESULT:      -4.6      3.275      5.526
REMARK  1 active torsions:
REMARK  status: ('A' for Active; 'I' for Inactive)
REMARK    1  A    between atoms: C_3  and  S_13 
ROOT
HETATM    1  C   UNL     1      63.304   7.325   3.179  1.00  0.00     0.042 A 
HETATM    2  C   UNL     1      62.526   8.557   3.141  1.00  0.00    -0.014 A 
HETATM    3  C   UNL     1      64.273   7.347   4.164  1.00  0.00     0.056 A 
HETATM    4  C   UNL     1      62.954   9.460   4.096  1.00  0.00     0.093 A 
HETATM    5  S   UNL     1      64.253   8.852   5.006  1.00  0.00    -0.071 SA
HETATM    6  C   UNL     1      62.972   6.234   2.261  1.00  0.00     0.162 C 
HETATM    7  C   UNL     1      62.391  10.759   4.327  1.00  0.00     0.107 C 
HETATM    8  N   UNL     1      61.908  11.802   4.491  1.00  0.00    -0.191 NA
HETATM    9  C   UNL     1      61.388   8.765   2.163  1.00  0.00     0.050 C 
HETATM   10  C   UNL     1      60.937   7.454   1.458  1.00  0.00    -0.037 C 
HETATM   11  C   UNL     1      62.182   6.647   1.035  1.00  0.00     0.093 C 
HETATM   12  O   UNL     1      63.251   5.057   2.455  1.00  0.00    -0.292 OA
HETATM   13  C   UNL     1      60.119   7.792   0.202  1.00  0.00     0.015 C 
HETATM   14  C   UNL     1      60.044   6.612   2.397  1.00  0.00     0.015 C 
ENDROOT
BRANCH   3  15
HETATM   15  S   UNL     1      65.423   6.127   4.715  1.00  0.00    -0.126 SA
HETATM   16  C   UNL     1      64.490   5.053   5.820  1.00  0.00     0.096 C 
ENDBRANCH   3  15
TORSDOF 1
ENDMDL
MODEL 6
REMARK VINA RESULT:      -4.6      3.272      5.357
REMARK  1 active torsions:
REMARK  status: ('A' for Active; 'I' for Inactive)
REMARK    1  A    between atoms: C_3  and  S_13 
ROOT
HETATM    1  C   UNL     1      63.596   6.795   2.494  1.00  0.00     0.042 A 
HETATM    2  C   UNL     1      63.923   7.522   3.714  1.00  0.00    -0.014 A 
HETATM    3  C   UNL     1      64.247   5.578   2.419  1.00  0.00     0.056 A 
HETATM    4  C   UNL     1      64.819   6.822   4.500  1.00  0.00     0.093 A 
HETATM    5  S   UNL     1      65.259   5.341   3.794  1.00  0.00    -0.071 SA
HETATM    6  C   UNL     1      62.633   7.366   1.550  1.00  0.00     0.162 C 
HETATM    7  C   UNL     1      65.332   7.256   5.768  1.00  0.00     0.107 C 
HETATM    8  N   UNL     1      65.723   7.635   6.793  1.00  0.00    -0.191 NA
HETATM    9  C   UNL     1      63.316   8.872   4.038  1.00  0.00     0.050 C 
HETATM   10  C   UNL     1      62.103   9.233   3.134  1.00  0.00    -0.037 C 
HETATM   11  C   UNL     1      62.428   8.863   1.672  1.00  0.00     0.093 C 
HETATM   12  O   UNL     1      61.987   6.713   0.740  1.00  0.00    -0.292 OA
HETATM   13  C   UNL     1      61.827  10.743   3.210  1.00  0.00     0.015 C 
HETATM   14  C   UNL     1      60.833   8.491   3.606  1.00  0.00     0.015 C 
ENDROOT
BRANCH   3  15
HETATM   15  S   UNL     1      64.167   4.269   1.238  1.00  0.00    -0.126 SA
HETATM   16  C   UNL     1      65.879   3.814   0.910  1.00  0.00     0.096 C 
ENDBRANCH   3  15
TORSDOF 1
ENDMDL
MODEL 7
REMARK VINA RESULT:      -4.4      3.171      4.852
REMARK  1 active torsions:
REMARK  status: ('A' for Active; 'I' for Inactive)
REMARK    1  A    between atoms: C_3  and  S_13 
ROOT
HETATM    1  C   UNL     1      64.388   6.918   5.809  1.00  0.00     0.042 A 
HETATM    2  C   UNL     1      63.021   6.457   5.602  1.00  0.00    -0.014 A 
HETATM    3  C   UNL     1      65.164   5.978   6.461  1.00  0.00     0.056 A 
HETATM    4  C   UNL     1      62.826   5.191   6.121  1.00  0.00     0.093 A 
HETATM    5  S   UNL     1      64.236   4.576   6.839  1.00  0.00    -0.071 SA
HETATM    6  C   UNL     1      64.794   8.227   5.295  1.00  0.00     0.162 C 
HETATM    7  C   UNL     1      61.598   4.449   6.071  1.00  0.00     0.107 C 
HETATM    8  N   UNL     1      60.591   3.876   6.009  1.00  0.00    -0.191 NA
HETATM    9  C   UNL     1      61.984   7.298   4.887  1.00  0.00     0.050 C 
HETATM   10  C   UNL     1      62.593   8.514   4.133  1.00  0.00    -0.037 C 
HETATM   11  C   UNL     1      63.654   9.190   5.026  1.00  0.00     0.093 C 
HETATM   12  O   UNL     1      65.950   8.545   5.043  1.00  0.00    -0.292 OA
HETATM   13  C   UNL     1      61.491   9.538   3.816  1.00  0.00     0.015 C 
HETATM   14  C   UNL     1      63.224   8.064   2.796  1.00  0.00     0.015 C 
ENDROOT
BRANCH   3  15
HETATM   15  S   UNL     1      66.876   5.956   6.891  1.00  0.00    -0.126 SA
HETATM   16  C   UNL     1      66.979   6.778   8.491  1.00  0.00     0.096 C 
ENDBRANCH   3  15
TORSDOF 1
ENDMDL
MODEL 8
REMARK VINA RESULT:      -4.3      3.484      5.307
REMARK  1 active torsions:
REMARK  status: ('A' for Active; 'I' for Inactive)
REMARK    1  A    between atoms: C_3  and  S_13 
ROOT
HETATM    1  C   UNL     1      63.012   6.689   4.700  1.00  0.00     0.042 A 
HETATM    2  C   UNL     1      62.174   7.814   4.304  1.00  0.00    -0.014 A 
HETATM    3  C   UNL     1      64.252   7.094   5.154  1.00  0.00     0.056 A 
HETATM    4  C   UNL     1      62.829   9.020   4.470  1.00  0.00     0.093 A 
HETATM    5  S   UNL     1      64.402   8.809   5.073  1.00  0.00    -0.071 SA
HETATM    6  C   UNL     1      62.475   5.328   4.627  1.00  0.00     0.162 C 
HETATM    7  C   UNL     1      62.277  10.314   4.185  1.00  0.00     0.107 C 
HETATM    8  N   UNL     1      61.799  11.344   3.949  1.00  0.00    -0.191 NA
HETATM    9  C   UNL     1      60.759   7.628   3.795  1.00  0.00     0.050 C 
HETATM   10  C   UNL     1      60.199   6.199   4.043  1.00  0.00    -0.037 C 
HETATM   11  C   UNL     1      61.286   5.158   3.701  1.00  0.00     0.093 C 
HETATM   12  O   UNL     1      62.893   4.382   5.283  1.00  0.00    -0.292 OA
HETATM   13  C   UNL     1      58.980   5.952   3.140  1.00  0.00     0.015 C 
HETATM   14  C   UNL     1      59.745   6.039   5.512  1.00  0.00     0.015 C 
ENDROOT
BRANCH   3  15
HETATM   15  S   UNL     1      65.613   6.194   5.829  1.00  0.00    -0.126 SA
HETATM   16  C   UNL     1      65.628   6.594   7.585  1.00  0.00     0.096 C 
ENDBRANCH   3  15
TORSDOF 1
ENDMDL
MODEL 9
REMARK VINA RESULT:      -4.3      3.507      5.202
REMARK  1 active torsions:
REMARK  status: ('A' for Active; 'I' for Inactive)
REMARK    1  A    between atoms: C_3  and  S_13 
ROOT
HETATM    1  C   UNL     1      60.963   6.862   4.378  1.00  0.00     0.042 A 
HETATM    2  C   UNL     1      62.389   7.009   4.115  1.00  0.00    -0.014 A 
HETATM    3  C   UNL     1      60.712   6.056   5.472  1.00  0.00     0.056 A 
HETATM    4  C   UNL     1      63.150   6.294   5.021  1.00  0.00     0.093 A 
HETATM    5  S   UNL     1      62.185   5.467   6.147  1.00  0.00    -0.071 SA
HETATM    6  C   UNL     1      59.998   7.577   3.540  1.00  0.00     0.162 C 
HETATM    7  C   UNL     1      64.584   6.238   5.045  1.00  0.00     0.107 C 
HETATM    8  N   UNL     1      65.744   6.219   5.038  1.00  0.00    -0.191 NA
HETATM    9  C   UNL     1      62.919   7.864   2.983  1.00  0.00     0.050 C 
HETATM   10  C   UNL     1      61.841   8.798   2.362  1.00  0.00    -0.037 C 
HETATM   11  C   UNL     1      60.525   8.013   2.187  1.00  0.00     0.093 C 
HETATM   12  O   UNL     1      58.858   7.863   3.886  1.00  0.00    -0.292 OA
HETATM   13  C   UNL     1      62.308   9.290   0.983  1.00  0.00     0.015 C 
HETATM   14  C   UNL     1      61.614  10.036   3.259  1.00  0.00     0.015 C 
ENDROOT
BRANCH   3  15
HETATM   15  S   UNL     1      59.212   5.608   6.287  1.00  0.00    -0.126 SA
HETATM   16  C   UNL     1      59.486   5.973   8.030  1.00  0.00     0.096 C 
ENDBRANCH   3  15
TORSDOF 1
ENDMDL
