MODEL 1
REMARK VINA RESULT:      -4.6      0.000      0.000
REMARK  3 active torsions:
REMARK  status: ('A' for Active; 'I' for Inactive)
REMARK    1  A    between atoms: C_1  and  C_4 
REMARK    2  A    between atoms: S_3  and  C_4 
REMARK    3  A    between atoms: S_3  and  C_6 
ROOT
HETATM    1  S   UNL     1      63.364   8.110   5.323  1.00  0.00    -0.123 SA
ENDROOT
BRANCH   1   2
HETATM    2  C   UNL     1      65.171   8.254   5.078  1.00  0.00     0.148 C 
BRANCH   2   3
HETATM    3  C   UNL     1      65.926   7.725   6.290  1.00  0.00     0.080 C 
HETATM    4  S   UNL     1      65.780   6.139   6.796  1.00  0.00    -0.065 SA
HETATM    5  N   UNL     1      66.809   8.548   6.922  1.00  0.00    -0.393 N 
HETATM    6  H   UNL     1      67.307   8.225   7.707  1.00  0.00     0.156 HD
HETATM    7  H   UNL     1      66.949   9.464   6.593  1.00  0.00     0.156 HD
ENDBRANCH   2   3
ENDBRANCH   1   2
BRANCH   1   8
HETATM    8  C   UNL     1      62.693   9.180   4.057  1.00  0.00     0.000 A 
HETATM    9  C   UNL     1      62.312  10.509   4.271  1.00  0.00     0.018 A 
HETATM   10  C   UNL     1      61.873  11.305   3.206  1.00  0.00     0.001 A 
HETATM   11  C   UNL     1      61.815  10.782   1.917  1.00  0.00     0.000 A 
HETATM   12  C   UNL     1      62.190   9.462   1.691  1.00  0.00     0.001 A 
HETATM   13  C   UNL     1      62.626   8.667   2.754  1.00  0.00     0.018 A 
ENDBRANCH   1   8
TORSDOF 3
ENDMDL
MODEL 2
REMARK VINA RESULT:      -4.5      0.961      1.737
REMARK  3 active torsions:
REMARK  status: ('A' for Active; 'I' for Inactive)
REMARK    1  A    between atoms: C_1  and  C_4 
REMARK    2  A    between atoms: S_3  and  C_4 
REMARK    3  A    between atoms: S_3  and  C_6 
ROOT
HETATM    1  S   UNL     1      63.227   8.267   5.248  1.00  0.00    -0.123 SA
ENDROOT
BRANCH   1   2
HETATM    2  C   UNL     1      65.052   8.341   5.137  1.00  0.00     0.148 C 
BRANCH   2   3
HETATM    3  C   UNL     1      65.694   7.414   6.160  1.00  0.00     0.080 C 
HETATM    4  S   UNL     1      67.297   6.954   6.050  1.00  0.00    -0.065 SA
HETATM    5  N   UNL     1      64.961   7.022   7.239  1.00  0.00    -0.393 N 
HETATM    6  H   UNL     1      65.357   6.423   7.913  1.00  0.00     0.156 HD
HETATM    7  H   UNL     1      64.035   7.339   7.346  1.00  0.00     0.156 HD
ENDBRANCH   2   3
ENDBRANCH   1   2
BRANCH   1   8
HETATM    8  C   UNL     1      62.693   9.343   3.924  1.00  0.00     0.000 A 
HETATM    9  C   UNL     1      62.492   8.926   2.603  1.00  0.00     0.018 A 
HETATM   10  C   UNL     1      61.992   9.814   1.643  1.00  0.00     0.001 A 
HETATM   11  C   UNL     1      61.685  11.126   1.994  1.00  0.00     0.000 A 
HETATM   12  C   UNL     1      61.881  11.554   3.303  1.00  0.00     0.001 A 
HETATM   13  C   UNL     1      62.382  10.668   4.260  1.00  0.00     0.018 A 
ENDBRANCH   1   8
TORSDOF 3
ENDMDL
MODEL 3
REMARK VINA RESULT:      -4.0      3.789      4.822
REMARK  3 active torsions:
REMARK  status: ('A' for Active; 'I' for Inactive)
REMARK    1  A    between atoms: C_1  and  C_4 
REMARK    2  A    between atoms: S_3  and  C_4 
REMARK    3  A    between atoms: S_3  and  C_6 
ROOT
HETATM    1  S   UNL     1      62.264   6.907   2.828  1.00  0.00    -0.123 SA
ENDROOT
BRANCH   1   2
HETATM    2  C   UNL     1      60.674   6.421   2.064  1.00  0.00     0.148 C 
BRANCH   2   3
HETATM    3  C   UNL     1      59.500   6.992   2.848  1.00  0.00     0.080 C 
HETATM    4  S   UNL     1      59.231   6.595   4.449  1.00  0.00    -0.065 SA
HETATM    5  N   UNL     1      58.701   7.918   2.248  1.00  0.00    -0.393 N 
HETATM    6  H   UNL     1      57.936   8.299   2.736  1.00  0.00     0.156 HD
HETATM    7  H   UNL     1      58.889   8.205   1.325  1.00  0.00     0.156 HD
ENDBRANCH   2   3
ENDBRANCH   1   2
BRANCH   1   8
HETATM    8  C   UNL     1      62.183   8.694   2.838  1.00  0.00     0.000 A 
HETATM    9  C   UNL     1      61.984   9.480   1.697  1.00  0.00     0.018 A 
HETATM   10  C   UNL     1      61.849  10.869   1.803  1.00  0.00     0.001 A 
HETATM   11  C   UNL     1      61.908  11.487   3.049  1.00  0.00     0.000 A 
HETATM   12  C   UNL     1      62.108  10.718   4.191  1.00  0.00     0.001 A 
HETATM   13  C   UNL     1      62.244   9.331   4.086  1.00  0.00     0.018 A 
ENDBRANCH   1   8
TORSDOF 3
ENDMDL
MODEL 4
REMARK VINA RESULT:      -3.9      1.256      1.551
REMARK  3 active torsions:
REMARK  status: ('A' for Active; 'I' for Inactive)
REMARK    1  A    between atoms: C_1  and  C_4 
REMARK    2  A    between atoms: S_3  and  C_4 
REMARK    3  A    between atoms: S_3  and  C_6 
ROOT
HETATM    1  S   UNL     1      62.989   8.155   5.105  1.00  0.00    -0.123 SA
ENDROOT
BRANCH   1   2
HETATM    2  C   UNL     1      64.638   8.927   5.279  1.00  0.00     0.148 C 
BRANCH   2   3
HETATM    3  C   UNL     1      65.694   7.881   5.606  1.00  0.00     0.080 C 
HETATM    4  S   UNL     1      66.295   6.841   4.444  1.00  0.00    -0.065 SA
HETATM    5  N   UNL     1      66.222   7.854   6.861  1.00  0.00    -0.393 N 
HETATM    6  H   UNL     1      66.906   7.185   7.094  1.00  0.00     0.156 HD
HETATM    7  H   UNL     1      65.920   8.504   7.536  1.00  0.00     0.156 HD
ENDBRANCH   2   3
ENDBRANCH   1   2
BRANCH   1   8
HETATM    8  C   UNL     1      62.551   8.504   3.407  1.00  0.00     0.000 A 
HETATM    9  C   UNL     1      62.122   9.753   2.945  1.00  0.00     0.018 A 
HETATM   10  C   UNL     1      61.879   9.965   1.583  1.00  0.00     0.001 A 
HETATM   11  C   UNL     1      62.065   8.932   0.668  1.00  0.00     0.000 A 
HETATM   12  C   UNL     1      62.490   7.684   1.114  1.00  0.00     0.001 A 
HETATM   13  C   UNL     1      62.731   7.473   2.474  1.00  0.00     0.018 A 
ENDBRANCH   1   8
TORSDOF 3
ENDMDL
MODEL 5
REMARK VINA RESULT:      -3.9      1.578      2.563
REMARK  3 active torsions:
REMARK  status: ('A' for Active; 'I' for Inactive)
REMARK    1  A    between atoms: C_1  and  C_4 
REMARK    2  A    between atoms: S_3  and  C_4 
REMARK    3  A    between atoms: S_3  and  C_6 
ROOT
HETATM    1  S   UNL     1      65.358   6.332   5.206  1.00  0.00    -0.123 SA
ENDROOT
BRANCH   1   2
HETATM    2  C   UNL     1      65.181   6.717   6.986  1.00  0.00     0.148 C 
BRANCH   2   3
HETATM    3  C   UNL     1      66.513   7.150   7.581  1.00  0.00     0.080 C 
HETATM    4  S   UNL     1      67.289   6.252   8.758  1.00  0.00    -0.065 SA
HETATM    5  N   UNL     1      67.128   8.256   7.075  1.00  0.00    -0.393 N 
HETATM    6  H   UNL     1      67.990   8.554   7.445  1.00  0.00     0.156 HD
HETATM    7  H   UNL     1      66.709   8.757   6.338  1.00  0.00     0.156 HD
ENDBRANCH   2   3
ENDBRANCH   1   2
BRANCH   1   8
HETATM    8  C   UNL     1      64.265   7.511   4.423  1.00  0.00     0.000 A 
HETATM    9  C   UNL     1      63.675   7.325   3.168  1.00  0.00     0.018 A 
HETATM   10  C   UNL     1      62.764   8.260   2.662  1.00  0.00     0.001 A 
HETATM   11  C   UNL     1      62.432   9.389   3.406  1.00  0.00     0.000 A 
HETATM   12  C   UNL     1      63.013   9.588   4.654  1.00  0.00     0.001 A 
HETATM   13  C   UNL     1      63.923   8.655   5.158  1.00  0.00     0.018 A 
ENDBRANCH   1   8
TORSDOF 3
ENDMDL
MODEL 6
REMARK VINA RESULT:      -3.9      2.042      2.324
REMARK  3 active torsions:
REMARK  status: ('A' for Active; 'I' for Inactive)
REMARK    1  A    between atoms: C_1  and  C_4 
REMARK    2  A    between atoms: S_3  and  C_4 
REMARK    3  A    between atoms: S_3  and  C_6 
ROOT
HETATM    1  S   UNL     1      64.058   6.907   3.383  1.00  0.00    -0.123 SA
ENDROOT
BRANCH   1   2
HETATM    2  C   UNL     1      65.340   6.736   4.676  1.00  0.00     0.148 C 
BRANCH   2   3
HETATM    3  C   UNL     1      66.682   6.365   4.062  1.00  0.00     0.080 C 
HETATM    4  S   UNL     1      66.903   4.940   3.218  1.00  0.00    -0.065 SA
HETATM    5  N   UNL     1      67.704   7.264   4.131  1.00  0.00    -0.393 N 
HETATM    6  H   UNL     1      68.581   7.044   3.740  1.00  0.00     0.156 HD
HETATM    7  H   UNL     1      67.566   8.133   4.572  1.00  0.00     0.156 HD
ENDBRANCH   2   3
ENDBRANCH   1   2
BRANCH   1   8
HETATM    8  C   UNL     1      63.289   8.474   3.774  1.00  0.00     0.000 A 
HETATM    9  C   UNL     1      63.492   9.175   4.968  1.00  0.00     0.018 A 
HETATM   10  C   UNL     1      62.918  10.436   5.161  1.00  0.00     0.001 A 
HETATM   11  C   UNL     1      62.138  11.013   4.161  1.00  0.00     0.000 A 
HETATM   12  C   UNL     1      61.927  10.327   2.970  1.00  0.00     0.001 A 
HETATM   13  C   UNL     1      62.499   9.066   2.778  1.00  0.00     0.018 A 
ENDBRANCH   1   8
TORSDOF 3
ENDMDL
MODEL 7
REMARK VINA RESULT:      -3.8      2.821      3.434
REMARK  3 active torsions:
REMARK  status: ('A' for Active; 'I' for Inactive)
REMARK    1  A    between atoms: C_1  and  C_4 
REMARK    2  A    between atoms: S_3  and  C_4 
REMARK    3  A    between atoms: S_3  and  C_6 
ROOT
HETATM    1  S   UNL     1      62.242   6.854   3.455  1.00  0.00    -0.123 SA
ENDROOT
BRANCH   1   2
HETATM    2  C   UNL     1      60.823   6.576   4.576  1.00  0.00     0.148 C 
BRANCH   2   3
HETATM    3  C   UNL     1      61.302   6.263   5.987  1.00  0.00     0.080 C 
HETATM    4  S   UNL     1      60.245   5.797   7.194  1.00  0.00    -0.065 SA
HETATM    5  N   UNL     1      62.640   6.282   6.243  1.00  0.00    -0.393 N 
HETATM    6  H   UNL     1      62.971   6.083   7.149  1.00  0.00     0.156 HD
HETATM    7  H   UNL     1      63.275   6.495   5.523  1.00  0.00     0.156 HD
ENDBRANCH   2   3
ENDBRANCH   1   2
BRANCH   1   8
HETATM    8  C   UNL     1      62.158   8.608   3.116  1.00  0.00     0.000 A 
HETATM    9  C   UNL     1      61.993   9.157   1.839  1.00  0.00     0.018 A 
HETATM   10  C   UNL     1      61.853  10.539   1.670  1.00  0.00     0.001 A 
HETATM   11  C   UNL     1      61.873  11.387   2.775  1.00  0.00     0.000 A 
HETATM   12  C   UNL     1      62.038  10.855   4.049  1.00  0.00     0.001 A 
HETATM   13  C   UNL     1      62.180   9.475   4.218  1.00  0.00     0.018 A 
ENDBRANCH   1   8
TORSDOF 3
ENDMDL
MODEL 8
REMARK VINA RESULT:      -3.7      2.422      3.552
REMARK  3 active torsions:
REMARK  status: ('A' for Active; 'I' for Inactive)
REMARK    1  A    between atoms: C_1  and  C_4 
REMARK    2  A    between atoms: S_3  and  C_4 
REMARK    3  A    between atoms: S_3  and  C_6 
ROOT
HETATM    1  S   UNL     1      66.606   8.084   6.396  1.00  0.00    -0.123 SA
ENDROOT
BRANCH   1   2
HETATM    2  C   UNL     1      67.625   6.567   6.332  1.00  0.00     0.148 C 
BRANCH   2   3
HETATM    3  C   UNL     1      67.547   5.806   7.649  1.00  0.00     0.080 C 
HETATM    4  S   UNL     1      66.932   4.255   7.737  1.00  0.00    -0.065 SA
HETATM    5  N   UNL     1      68.075   6.378   8.767  1.00  0.00    -0.393 N 
HETATM    6  H   UNL     1      68.035   5.904   9.629  1.00  0.00     0.156 HD
HETATM    7  H   UNL     1      68.496   7.266   8.713  1.00  0.00     0.156 HD
ENDBRANCH   2   3
ENDBRANCH   1   2
BRANCH   1   8
HETATM    8  C   UNL     1      65.436   7.847   5.065  1.00  0.00     0.000 A 
HETATM    9  C   UNL     1      65.455   6.760   4.184  1.00  0.00     0.018 A 
HETATM   10  C   UNL     1      64.452   6.606   3.220  1.00  0.00     0.001 A 
HETATM   11  C   UNL     1      63.417   7.533   3.129  1.00  0.00     0.000 A 
HETATM   12  C   UNL     1      63.387   8.620   3.997  1.00  0.00     0.001 A 
HETATM   13  C   UNL     1      64.390   8.775   4.959  1.00  0.00     0.018 A 
ENDBRANCH   1   8
TORSDOF 3
ENDMDL
MODEL 9
REMARK VINA RESULT:      -3.6      2.280      5.613
REMARK  3 active torsions:
REMARK  status: ('A' for Active; 'I' for Inactive)
REMARK    1  A    between atoms: C_1  and  C_4 
REMARK    2  A    between atoms: S_3  and  C_4 
REMARK    3  A    between atoms: S_3  and  C_6 
ROOT
HETATM    1  S   UNL     1      63.443   7.153   5.607  1.00  0.00    -0.123 SA
ENDROOT
BRANCH   1   2
HETATM    2  C   UNL     1      63.539   8.290   4.177  1.00  0.00     0.148 C 
BRANCH   2   3
HETATM    3  C   UNL     1      63.025   9.673   4.550  1.00  0.00     0.080 C 
HETATM    4  S   UNL     1      61.914  10.487   3.604  1.00  0.00    -0.065 SA
HETATM    5  N   UNL     1      63.421  10.221   5.734  1.00  0.00    -0.393 N 
HETATM    6  H   UNL     1      63.101  11.114   5.994  1.00  0.00     0.156 HD
HETATM    7  H   UNL     1      64.026   9.722   6.328  1.00  0.00     0.156 HD
ENDBRANCH   2   3
ENDBRANCH   1   2
BRANCH   1   8
HETATM    8  C   UNL     1      65.159   6.905   6.047  1.00  0.00     0.000 A 
HETATM    9  C   UNL     1      65.590   6.379   7.270  1.00  0.00     0.018 A 
HETATM   10  C   UNL     1      66.949   6.139   7.503  1.00  0.00     0.001 A 
HETATM   11  C   UNL     1      67.891   6.417   6.515  1.00  0.00     0.000 A 
HETATM   12  C   UNL     1      67.476   6.941   5.295  1.00  0.00     0.001 A 
HETATM   13  C   UNL     1      66.119   7.183   5.063  1.00  0.00     0.018 A 
ENDBRANCH   1   8
TORSDOF 3
ENDMDL
