MODEL 1
REMARK VINA RESULT:      -4.9      0.000      0.000
REMARK  2 active torsions:
REMARK  status: ('A' for Active; 'I' for Inactive)
REMARK    1  A    between atoms: C_1  and  S_4 
REMARK    2  A    between atoms: S_4  and  C_7 
ROOT
HETATM    1  C   UNL     1      62.203   8.949   3.742  1.00  0.00     0.005 A 
HETATM    2  C   UNL     1      62.175   8.715   2.363  1.00  0.00     0.019 A 
HETATM    3  C   UNL     1      62.077  10.260   4.216  1.00  0.00     0.019 A 
HETATM    4  C   UNL     1      61.928  11.322   3.320  1.00  0.00     0.001 A 
HETATM    5  C   UNL     1      62.027   9.777   1.469  1.00  0.00     0.001 A 
HETATM    6  C   UNL     1      61.899  11.080   1.948  1.00  0.00     0.000 A 
ENDROOT
BRANCH   1   7
HETATM    7  S   UNL     1      62.279   7.588   4.884  1.00  0.00    -0.090 SA
BRANCH   7   8
HETATM    8  C   UNL     1      63.934   7.559   5.478  1.00  0.00     0.012 A 
HETATM    9  C   UNL     1      65.044   8.282   4.952  1.00  0.00     0.026 A 
HETATM   10  C   UNL     1      66.206   8.027   5.649  1.00  0.00     0.051 A 
HETATM   11  S   UNL     1      65.961   6.929   6.936  1.00  0.00    -0.112 SA
HETATM   12  C   UNL     1      64.298   6.788   6.562  1.00  0.00     0.068 A 
ENDBRANCH   7   8
ENDBRANCH   1   7
TORSDOF 2
ENDMDL
MODEL 2
REMARK VINA RESULT:      -4.7      0.189      1.406
REMARK  2 active torsions:
REMARK  status: ('A' for Active; 'I' for Inactive)
REMARK    1  A    between atoms: C_1  and  S_4 
REMARK    2  A    between atoms: S_4  and  C_7 
ROOT
HETATM    1  C   UNL     1      61.999   8.845   3.635  1.00  0.00     0.005 A 
HETATM    2  C   UNL     1      61.903  10.157   4.111  1.00  0.00     0.019 A 
HETATM    3  C   UNL     1      62.080   8.620   2.257  1.00  0.00     0.019 A 
HETATM    4  C   UNL     1      62.063   9.697   1.366  1.00  0.00     0.001 A 
HETATM    5  C   UNL     1      61.885  11.231   3.220  1.00  0.00     0.001 A 
HETATM    6  C   UNL     1      61.969  11.001   1.847  1.00  0.00     0.000 A 
ENDROOT
BRANCH   1   7
HETATM    7  S   UNL     1      62.134   7.483   4.773  1.00  0.00    -0.090 SA
BRANCH   7   8
HETATM    8  C   UNL     1      63.788   7.525   5.367  1.00  0.00     0.012 A 
HETATM    9  C   UNL     1      64.864   8.303   4.849  1.00  0.00     0.026 A 
HETATM   10  C   UNL     1      66.037   8.094   5.544  1.00  0.00     0.051 A 
HETATM   11  S   UNL     1      65.842   6.972   6.819  1.00  0.00    -0.112 SA
HETATM   12  C   UNL     1      64.187   6.759   6.443  1.00  0.00     0.068 A 
ENDBRANCH   7   8
ENDBRANCH   1   7
TORSDOF 2
ENDMDL
MODEL 3
REMARK VINA RESULT:      -4.3      1.333      2.058
REMARK  2 active torsions:
REMARK  status: ('A' for Active; 'I' for Inactive)
REMARK    1  A    between atoms: C_1  and  S_4 
REMARK    2  A    between atoms: S_4  and  C_7 
ROOT
HETATM    1  C   UNL     1      63.297   8.581   3.889  1.00  0.00     0.005 A 
HETATM    2  C   UNL     1      63.466   9.342   5.050  1.00  0.00     0.019 A 
HETATM    3  C   UNL     1      62.532   9.097   2.837  1.00  0.00     0.019 A 
HETATM    4  C   UNL     1      61.943  10.359   2.948  1.00  0.00     0.001 A 
HETATM    5  C   UNL     1      62.875  10.602   5.161  1.00  0.00     0.001 A 
HETATM    6  C   UNL     1      62.117  11.112   4.108  1.00  0.00     0.000 A 
ENDROOT
BRANCH   1   7
HETATM    7  S   UNL     1      64.140   7.025   3.703  1.00  0.00    -0.090 SA
BRANCH   7   8
HETATM    8  C   UNL     1      65.467   7.064   4.855  1.00  0.00     0.012 A 
HETATM    9  C   UNL     1      66.761   7.626   4.651  1.00  0.00     0.026 A 
HETATM   10  C   UNL     1      67.570   7.481   5.758  1.00  0.00     0.051 A 
HETATM   11  S   UNL     1      66.774   6.678   7.040  1.00  0.00    -0.112 SA
HETATM   12  C   UNL     1      65.344   6.519   6.116  1.00  0.00     0.068 A 
ENDBRANCH   7   8
ENDBRANCH   1   7
TORSDOF 2
ENDMDL
MODEL 4
REMARK VINA RESULT:      -4.3      2.134      3.169
REMARK  2 active torsions:
REMARK  status: ('A' for Active; 'I' for Inactive)
REMARK    1  A    between atoms: C_1  and  S_4 
REMARK    2  A    between atoms: S_4  and  C_7 
ROOT
HETATM    1  C   UNL     1      62.704   8.880   3.500  1.00  0.00     0.005 A 
HETATM    2  C   UNL     1      62.459   8.894   2.123  1.00  0.00     0.019 A 
HETATM    3  C   UNL     1      62.465  10.036   4.250  1.00  0.00     0.019 A 
HETATM    4  C   UNL     1      61.988  11.193   3.629  1.00  0.00     0.001 A 
HETATM    5  C   UNL     1      61.983  10.052   1.502  1.00  0.00     0.001 A 
HETATM    6  C   UNL     1      61.744  11.199   2.257  1.00  0.00     0.000 A 
ENDROOT
BRANCH   1   7
HETATM    7  S   UNL     1      63.203   7.376   4.308  1.00  0.00    -0.090 SA
BRANCH   7   8
HETATM    8  C   UNL     1      61.756   6.754   5.089  1.00  0.00     0.012 A 
HETATM    9  C   UNL     1      60.450   6.667   4.524  1.00  0.00     0.026 A 
HETATM   10  C   UNL     1      59.536   6.136   5.410  1.00  0.00     0.051 A 
HETATM   11  S   UNL     1      60.248   5.738   6.913  1.00  0.00    -0.112 SA
HETATM   12  C   UNL     1      61.782   6.279   6.383  1.00  0.00     0.068 A 
ENDBRANCH   7   8
ENDBRANCH   1   7
TORSDOF 2
ENDMDL
MODEL 5
REMARK VINA RESULT:      -4.1      2.934      5.316
REMARK  2 active torsions:
REMARK  status: ('A' for Active; 'I' for Inactive)
REMARK    1  A    between atoms: C_1  and  S_4 
REMARK    2  A    between atoms: S_4  and  C_7 
ROOT
HETATM    1  C   UNL     1      62.354   9.477   2.660  1.00  0.00     0.005 A 
HETATM    2  C   UNL     1      61.894  10.749   3.016  1.00  0.00     0.019 A 
HETATM    3  C   UNL     1      63.076   8.724   3.593  1.00  0.00     0.019 A 
HETATM    4  C   UNL     1      63.336   9.240   4.865  1.00  0.00     0.001 A 
HETATM    5  C   UNL     1      62.156  11.265   4.287  1.00  0.00     0.001 A 
HETATM    6  C   UNL     1      62.873  10.508   5.213  1.00  0.00     0.000 A 
ENDROOT
BRANCH   1   7
HETATM    7  S   UNL     1      61.926   8.775   1.083  1.00  0.00    -0.090 SA
BRANCH   7   8
HETATM    8  C   UNL     1      60.489   7.803   1.370  1.00  0.00     0.012 A 
HETATM    9  C   UNL     1      60.373   6.687   2.249  1.00  0.00     0.026 A 
HETATM   10  C   UNL     1      59.105   6.144   2.233  1.00  0.00     0.051 A 
HETATM   11  S   UNL     1      58.058   6.978   1.169  1.00  0.00    -0.112 SA
HETATM   12  C   UNL     1      59.299   8.067   0.725  1.00  0.00     0.068 A 
ENDBRANCH   7   8
ENDBRANCH   1   7
TORSDOF 2
ENDMDL
MODEL 6
REMARK VINA RESULT:      -4.1      1.750      5.288
REMARK  2 active torsions:
REMARK  status: ('A' for Active; 'I' for Inactive)
REMARK    1  A    between atoms: C_1  and  S_4 
REMARK    2  A    between atoms: S_4  and  C_7 
ROOT
HETATM    1  C   UNL     1      64.583   7.748   4.821  1.00  0.00     0.005 A 
HETATM    2  C   UNL     1      65.601   8.295   5.611  1.00  0.00     0.019 A 
HETATM    3  C   UNL     1      64.902   6.767   3.877  1.00  0.00     0.019 A 
HETATM    4  C   UNL     1      66.224   6.339   3.724  1.00  0.00     0.001 A 
HETATM    5  C   UNL     1      66.921   7.868   5.456  1.00  0.00     0.001 A 
HETATM    6  C   UNL     1      67.231   6.887   4.515  1.00  0.00     0.000 A 
ENDROOT
BRANCH   1   7
HETATM    7  S   UNL     1      62.887   8.210   5.094  1.00  0.00    -0.090 SA
BRANCH   7   8
HETATM    8  C   UNL     1      62.443   9.217   3.723  1.00  0.00     0.012 A 
HETATM    9  C   UNL     1      62.328   8.806   2.363  1.00  0.00     0.026 A 
HETATM   10  C   UNL     1      61.967   9.849   1.535  1.00  0.00     0.051 A 
HETATM   11  S   UNL     1      61.762  11.314   2.393  1.00  0.00    -0.112 SA
HETATM   12  C   UNL     1      62.158  10.557   3.875  1.00  0.00     0.068 A 
ENDBRANCH   7   8
ENDBRANCH   1   7
TORSDOF 2
ENDMDL
MODEL 7
REMARK VINA RESULT:      -4.0      2.627      4.070
REMARK  2 active torsions:
REMARK  status: ('A' for Active; 'I' for Inactive)
REMARK    1  A    between atoms: C_1  and  S_4 
REMARK    2  A    between atoms: S_4  and  C_7 
ROOT
HETATM    1  C   UNL     1      65.656   7.653   4.771  1.00  0.00     0.005 A 
HETATM    2  C   UNL     1      64.754   8.679   5.071  1.00  0.00     0.019 A 
HETATM    3  C   UNL     1      65.306   6.690   3.818  1.00  0.00     0.019 A 
HETATM    4  C   UNL     1      64.066   6.753   3.175  1.00  0.00     0.001 A 
HETATM    5  C   UNL     1      63.515   8.740   4.429  1.00  0.00     0.001 A 
HETATM    6  C   UNL     1      63.174   7.780   3.478  1.00  0.00     0.000 A 
ENDROOT
BRANCH   1   7
HETATM    7  S   UNL     1      67.277   7.637   5.504  1.00  0.00    -0.090 SA
BRANCH   7   8
HETATM    8  C   UNL     1      67.158   6.566   6.894  1.00  0.00     0.012 A 
HETATM    9  C   UNL     1      66.309   6.727   8.027  1.00  0.00     0.026 A 
HETATM   10  C   UNL     1      66.469   5.708   8.943  1.00  0.00     0.051 A 
HETATM   11  S   UNL     1      67.629   4.559   8.437  1.00  0.00    -0.112 SA
HETATM   12  C   UNL     1      67.925   5.424   6.992  1.00  0.00     0.068 A 
ENDBRANCH   7   8
ENDBRANCH   1   7
TORSDOF 2
ENDMDL
MODEL 8
REMARK VINA RESULT:      -3.9      1.473      2.389
REMARK  2 active torsions:
REMARK  status: ('A' for Active; 'I' for Inactive)
REMARK    1  A    between atoms: C_1  and  S_4 
REMARK    2  A    between atoms: S_4  and  C_7 
ROOT
HETATM    1  C   UNL     1      61.742   9.158   3.096  1.00  0.00     0.005 A 
HETATM    2  C   UNL     1      62.233   9.414   1.812  1.00  0.00     0.019 A 
HETATM    3  C   UNL     1      60.689   8.252   3.259  1.00  0.00     0.019 A 
HETATM    4  C   UNL     1      60.133   7.612   2.148  1.00  0.00     0.001 A 
HETATM    5  C   UNL     1      61.675   8.775   0.702  1.00  0.00     0.001 A 
HETATM    6  C   UNL     1      60.628   7.871   0.871  1.00  0.00     0.000 A 
ENDROOT
BRANCH   1   7
HETATM    7  S   UNL     1      62.524   9.885   4.519  1.00  0.00    -0.090 SA
BRANCH   7   8
HETATM    8  C   UNL     1      63.473   8.598   5.249  1.00  0.00     0.012 A 
HETATM    9  C   UNL     1      62.985   7.526   6.052  1.00  0.00     0.026 A 
HETATM   10  C   UNL     1      63.999   6.691   6.474  1.00  0.00     0.051 A 
HETATM   11  S   UNL     1      65.530   7.192   5.900  1.00  0.00    -0.112 SA
HETATM   12  C   UNL     1      64.841   8.530   5.088  1.00  0.00     0.068 A 
ENDBRANCH   7   8
ENDBRANCH   1   7
TORSDOF 2
ENDMDL
MODEL 9
REMARK VINA RESULT:      -3.8      1.838      2.991
REMARK  2 active torsions:
REMARK  status: ('A' for Active; 'I' for Inactive)
REMARK    1  A    between atoms: C_1  and  S_4 
REMARK    2  A    between atoms: S_4  and  C_7 
ROOT
HETATM    1  C   UNL     1      63.122   8.947   4.291  1.00  0.00     0.005 A 
HETATM    2  C   UNL     1      62.693  10.219   4.684  1.00  0.00     0.019 A 
HETATM    3  C   UNL     1      62.872   8.514   2.984  1.00  0.00     0.019 A 
HETATM    4  C   UNL     1      62.200   9.344   2.083  1.00  0.00     0.001 A 
HETATM    5  C   UNL     1      62.020  11.047   3.783  1.00  0.00     0.001 A 
HETATM    6  C   UNL     1      61.778  10.611   2.481  1.00  0.00     0.000 A 
ENDROOT
BRANCH   1   7
HETATM    7  S   UNL     1      64.075   7.937   5.402  1.00  0.00    -0.090 SA
BRANCH   7   8
HETATM    8  C   UNL     1      63.077   6.528   5.737  1.00  0.00     0.012 A 
HETATM    9  C   UNL     1      63.401   5.167   5.466  1.00  0.00     0.026 A 
HETATM   10  C   UNL     1      62.392   4.308   5.847  1.00  0.00     0.051 A 
HETATM   11  S   UNL     1      61.063   5.136   6.534  1.00  0.00    -0.112 SA
HETATM   12  C   UNL     1      61.834   6.648   6.321  1.00  0.00     0.068 A 
ENDBRANCH   7   8
ENDBRANCH   1   7
TORSDOF 2
ENDMDL
