MODEL 1
REMARK VINA RESULT:      -4.8      0.000      0.000
REMARK  2 active torsions:
REMARK  status: ('A' for Active; 'I' for Inactive)
REMARK    1  A    between atoms: C_1  and  S_3 
REMARK    2  A    between atoms: S_3  and  C_7 
ROOT
HETATM    1  C   UNL     1      62.204   8.949   3.689  1.00  0.00     0.006 A 
HETATM    2  C   UNL     1      62.232   8.716   2.309  1.00  0.00     0.019 A 
HETATM    3  C   UNL     1      62.030  10.257   4.159  1.00  0.00     0.019 A 
HETATM    4  C   UNL     1      61.890  11.316   3.259  1.00  0.00     0.001 A 
HETATM    5  C   UNL     1      62.094   9.778   1.411  1.00  0.00     0.001 A 
HETATM    6  C   UNL     1      61.920  11.076   1.886  1.00  0.00     0.000 A 
ENDROOT
BRANCH   1   7
HETATM    7  S   UNL     1      62.260   7.590   4.834  1.00  0.00    -0.083 SA
BRANCH   7   8
HETATM    8  C   UNL     1      63.939   7.604   5.364  1.00  0.00     0.046 A 
HETATM    9  S   UNL     1      64.453   6.458   6.540  1.00  0.00    -0.095 SA
HETATM   10  C   UNL     1      66.054   7.047   6.527  1.00  0.00     0.051 A 
HETATM   11  C   UNL     1      66.208   8.096   5.649  1.00  0.00     0.009 A 
HETATM   12  C   UNL     1      64.986   8.418   4.980  1.00  0.00     0.027 A 
ENDBRANCH   7   8
ENDBRANCH   1   7
TORSDOF 2
ENDMDL
MODEL 2
REMARK VINA RESULT:      -4.8      0.174      1.404
REMARK  2 active torsions:
REMARK  status: ('A' for Active; 'I' for Inactive)
REMARK    1  A    between atoms: C_1  and  S_3 
REMARK    2  A    between atoms: S_3  and  C_7 
ROOT
HETATM    1  C   UNL     1      61.977   8.829   3.668  1.00  0.00     0.006 A 
HETATM    2  C   UNL     1      61.914  10.148   4.133  1.00  0.00     0.019 A 
HETATM    3  C   UNL     1      62.029   8.591   2.290  1.00  0.00     0.019 A 
HETATM    4  C   UNL     1      62.013   9.658   1.388  1.00  0.00     0.001 A 
HETATM    5  C   UNL     1      61.896  11.215   3.229  1.00  0.00     0.001 A 
HETATM    6  C   UNL     1      61.949  10.969   1.859  1.00  0.00     0.000 A 
ENDROOT
BRANCH   1   7
HETATM    7  S   UNL     1      62.119   7.477   4.814  1.00  0.00    -0.083 SA
BRANCH   7   8
HETATM    8  C   UNL     1      63.806   7.566   5.308  1.00  0.00     0.046 A 
HETATM    9  S   UNL     1      64.374   6.504   6.536  1.00  0.00    -0.095 SA
HETATM   10  C   UNL     1      65.958   7.134   6.457  1.00  0.00     0.051 A 
HETATM   11  C   UNL     1      66.065   8.135   5.518  1.00  0.00     0.009 A 
HETATM   12  C   UNL     1      64.822   8.385   4.857  1.00  0.00     0.027 A 
ENDBRANCH   7   8
ENDBRANCH   1   7
TORSDOF 2
ENDMDL
MODEL 3
REMARK VINA RESULT:      -4.3      2.327      3.102
REMARK  2 active torsions:
REMARK  status: ('A' for Active; 'I' for Inactive)
REMARK    1  A    between atoms: C_1  and  S_3 
REMARK    2  A    between atoms: S_3  and  C_7 
ROOT
HETATM    1  C   UNL     1      62.541   8.856   3.083  1.00  0.00     0.006 A 
HETATM    2  C   UNL     1      62.204   9.398   1.837  1.00  0.00     0.019 A 
HETATM    3  C   UNL     1      62.512   9.676   4.217  1.00  0.00     0.019 A 
HETATM    4  C   UNL     1      62.156  11.022   4.105  1.00  0.00     0.001 A 
HETATM    5  C   UNL     1      61.849  10.745   1.727  1.00  0.00     0.001 A 
HETATM    6  C   UNL     1      61.822  11.555   2.860  1.00  0.00     0.000 A 
ENDROOT
BRANCH   1   7
HETATM    7  S   UNL     1      62.878   7.117   3.247  1.00  0.00    -0.083 SA
BRANCH   7   8
HETATM    8  C   UNL     1      61.785   6.634   4.539  1.00  0.00     0.046 A 
HETATM    9  S   UNL     1      62.427   6.326   6.105  1.00  0.00    -0.095 SA
HETATM   10  C   UNL     1      60.891   5.954   6.747  1.00  0.00     0.051 A 
HETATM   11  C   UNL     1      59.900   6.058   5.798  1.00  0.00     0.009 A 
HETATM   12  C   UNL     1      60.416   6.448   4.523  1.00  0.00     0.027 A 
ENDBRANCH   7   8
ENDBRANCH   1   7
TORSDOF 2
ENDMDL
MODEL 4
REMARK VINA RESULT:      -4.2      1.550      5.276
REMARK  2 active torsions:
REMARK  status: ('A' for Active; 'I' for Inactive)
REMARK    1  A    between atoms: C_1  and  S_3 
REMARK    2  A    between atoms: S_3  and  C_7 
ROOT
HETATM    1  C   UNL     1      64.525   7.598   4.678  1.00  0.00     0.006 A 
HETATM    2  C   UNL     1      65.500   8.241   5.449  1.00  0.00     0.019 A 
HETATM    3  C   UNL     1      64.912   6.590   3.787  1.00  0.00     0.019 A 
HETATM    4  C   UNL     1      66.257   6.234   3.666  1.00  0.00     0.001 A 
HETATM    5  C   UNL     1      66.846   7.885   5.325  1.00  0.00     0.001 A 
HETATM    6  C   UNL     1      67.223   6.880   4.437  1.00  0.00     0.000 A 
ENDROOT
BRANCH   1   7
HETATM    7  S   UNL     1      62.801   7.965   4.916  1.00  0.00    -0.083 SA
BRANCH   7   8
HETATM    8  C   UNL     1      62.428   8.977   3.525  1.00  0.00     0.046 A 
HETATM    9  S   UNL     1      62.058  10.638   3.775  1.00  0.00    -0.095 SA
HETATM   10  C   UNL     1      61.839  10.921   2.107  1.00  0.00     0.051 A 
HETATM   11  C   UNL     1      62.041   9.781   1.363  1.00  0.00     0.009 A 
HETATM   12  C   UNL     1      62.378   8.658   2.182  1.00  0.00     0.027 A 
ENDBRANCH   7   8
ENDBRANCH   1   7
TORSDOF 2
ENDMDL
MODEL 5
REMARK VINA RESULT:      -4.2      3.191      5.524
REMARK  2 active torsions:
REMARK  status: ('A' for Active; 'I' for Inactive)
REMARK    1  A    between atoms: C_1  and  S_3 
REMARK    2  A    between atoms: S_3  and  C_7 
ROOT
HETATM    1  C   UNL     1      62.245   9.197   1.845  1.00  0.00     0.006 A 
HETATM    2  C   UNL     1      61.869  10.544   1.780  1.00  0.00     0.019 A 
HETATM    3  C   UNL     1      62.591   8.643   3.083  1.00  0.00     0.019 A 
HETATM    4  C   UNL     1      62.566   9.427   4.239  1.00  0.00     0.001 A 
HETATM    5  C   UNL     1      61.847  11.328   2.937  1.00  0.00     0.001 A 
HETATM    6  C   UNL     1      62.192  10.768   4.165  1.00  0.00     0.000 A 
ENDROOT
BRANCH   1   7
HETATM    7  S   UNL     1      62.162   8.167   0.398  1.00  0.00    -0.083 SA
BRANCH   7   8
HETATM    8  C   UNL     1      60.559   7.451   0.527  1.00  0.00     0.046 A 
HETATM    9  S   UNL     1      60.368   5.770   0.216  1.00  0.00    -0.095 SA
HETATM   10  C   UNL     1      58.690   5.825   0.523  1.00  0.00     0.051 A 
HETATM   11  C   UNL     1      58.272   7.093   0.857  1.00  0.00     0.009 A 
HETATM   12  C   UNL     1      59.350   8.032   0.856  1.00  0.00     0.027 A 
ENDBRANCH   7   8
ENDBRANCH   1   7
TORSDOF 2
ENDMDL
MODEL 6
REMARK VINA RESULT:      -4.0      2.103      3.114
REMARK  2 active torsions:
REMARK  status: ('A' for Active; 'I' for Inactive)
REMARK    1  A    between atoms: C_1  and  S_3 
REMARK    2  A    between atoms: S_3  and  C_7 
ROOT
HETATM    1  C   UNL     1      63.237   8.729   4.425  1.00  0.00     0.006 A 
HETATM    2  C   UNL     1      62.880   9.981   4.940  1.00  0.00     0.019 A 
HETATM    3  C   UNL     1      62.902   8.413   3.103  1.00  0.00     0.019 A 
HETATM    4  C   UNL     1      62.215   9.334   2.310  1.00  0.00     0.001 A 
HETATM    5  C   UNL     1      62.191  10.901   4.145  1.00  0.00     0.001 A 
HETATM    6  C   UNL     1      61.862  10.578   2.831  1.00  0.00     0.000 A 
ENDROOT
BRANCH   1   7
HETATM    7  S   UNL     1      64.215   7.602   5.393  1.00  0.00    -0.083 SA
BRANCH   7   8
HETATM    8  C   UNL     1      63.024   6.421   5.927  1.00  0.00     0.046 A 
HETATM    9  S   UNL     1      63.508   4.783   6.137  1.00  0.00    -0.095 SA
HETATM   10  C   UNL     1      61.947   4.304   6.630  1.00  0.00     0.051 A 
HETATM   11  C   UNL     1      61.065   5.361   6.639  1.00  0.00     0.009 A 
HETATM   12  C   UNL     1      61.687   6.582   6.230  1.00  0.00     0.027 A 
ENDBRANCH   7   8
ENDBRANCH   1   7
TORSDOF 2
ENDMDL
MODEL 7
REMARK VINA RESULT:      -3.9      2.879      4.217
REMARK  2 active torsions:
REMARK  status: ('A' for Active; 'I' for Inactive)
REMARK    1  A    between atoms: C_1  and  S_3 
REMARK    2  A    between atoms: S_3  and  C_7 
ROOT
HETATM    1  C   UNL     1      60.310   7.948   2.053  1.00  0.00     0.006 A 
HETATM    2  C   UNL     1      59.518   7.693   0.927  1.00  0.00     0.019 A 
HETATM    3  C   UNL     1      59.767   7.760   3.329  1.00  0.00     0.019 A 
HETATM    4  C   UNL     1      58.447   7.328   3.477  1.00  0.00     0.001 A 
HETATM    5  C   UNL     1      58.197   7.262   1.077  1.00  0.00     0.001 A 
HETATM    6  C   UNL     1      57.663   7.077   2.351  1.00  0.00     0.000 A 
ENDROOT
BRANCH   1   7
HETATM    7  S   UNL     1      62.025   8.382   1.867  1.00  0.00    -0.083 SA
BRANCH   7   8
HETATM    8  C   UNL     1      62.283   9.503   3.199  1.00  0.00     0.046 A 
HETATM    9  S   UNL     1      63.163   8.972   4.580  1.00  0.00    -0.095 SA
HETATM   10  C   UNL     1      63.011  10.485   5.354  1.00  0.00     0.051 A 
HETATM   11  C   UNL     1      62.307  11.385   4.588  1.00  0.00     0.009 A 
HETATM   12  C   UNL     1      61.885  10.817   3.346  1.00  0.00     0.027 A 
ENDBRANCH   7   8
ENDBRANCH   1   7
TORSDOF 2
ENDMDL
MODEL 8
REMARK VINA RESULT:      -3.9      1.875      3.027
REMARK  2 active torsions:
REMARK  status: ('A' for Active; 'I' for Inactive)
REMARK    1  A    between atoms: C_1  and  S_3 
REMARK    2  A    between atoms: S_3  and  C_7 
ROOT
HETATM    1  C   UNL     1      64.523   7.688   4.242  1.00  0.00     0.006 A 
HETATM    2  C   UNL     1      64.337   8.777   5.102  1.00  0.00     0.019 A 
HETATM    3  C   UNL     1      63.580   7.441   3.238  1.00  0.00     0.019 A 
HETATM    4  C   UNL     1      62.464   8.269   3.098  1.00  0.00     0.001 A 
HETATM    5  C   UNL     1      63.220   9.604   4.961  1.00  0.00     0.001 A 
HETATM    6  C   UNL     1      62.286   9.352   3.959  1.00  0.00     0.000 A 
ENDROOT
BRANCH   1   7
HETATM    7  S   UNL     1      66.001   6.704   4.341  1.00  0.00    -0.083 SA
BRANCH   7   8
HETATM    8  C   UNL     1      66.227   6.523   6.078  1.00  0.00     0.046 A 
HETATM    9  S   UNL     1      65.445   5.224   6.891  1.00  0.00    -0.095 SA
HETATM   10  C   UNL     1      66.096   5.676   8.402  1.00  0.00     0.051 A 
HETATM   11  C   UNL     1      66.894   6.793   8.303  1.00  0.00     0.009 A 
HETATM   12  C   UNL     1      66.967   7.283   6.962  1.00  0.00     0.027 A 
ENDBRANCH   7   8
ENDBRANCH   1   7
TORSDOF 2
ENDMDL
MODEL 9
REMARK VINA RESULT:      -3.8      3.112      4.978
REMARK  2 active torsions:
REMARK  status: ('A' for Active; 'I' for Inactive)
REMARK    1  A    between atoms: C_1  and  S_3 
REMARK    2  A    between atoms: S_3  and  C_7 
ROOT
HETATM    1  C   UNL     1      61.533   8.196   3.036  1.00  0.00     0.006 A 
HETATM    2  C   UNL     1      61.594   9.353   3.821  1.00  0.00     0.019 A 
HETATM    3  C   UNL     1      61.743   8.293   1.656  1.00  0.00     0.019 A 
HETATM    4  C   UNL     1      62.006   9.532   1.068  1.00  0.00     0.001 A 
HETATM    5  C   UNL     1      61.856  10.593   3.231  1.00  0.00     0.001 A 
HETATM    6  C   UNL     1      62.065  10.681   1.856  1.00  0.00     0.000 A 
ENDROOT
BRANCH   1   7
HETATM    7  S   UNL     1      61.317   6.602   3.797  1.00  0.00    -0.083 SA
BRANCH   7   8
HETATM    8  C   UNL     1      59.637   6.651   4.321  1.00  0.00     0.046 A 
HETATM    9  S   UNL     1      58.449   7.294   3.255  1.00  0.00    -0.095 SA
HETATM   10  C   UNL     1      57.187   7.017   4.370  1.00  0.00     0.051 A 
HETATM   11  C   UNL     1      57.649   6.446   5.535  1.00  0.00     0.009 A 
HETATM   12  C   UNL     1      59.063   6.238   5.507  1.00  0.00     0.027 A 
ENDBRANCH   7   8
ENDBRANCH   1   7
TORSDOF 2
ENDMDL
