MODEL 1
REMARK VINA RESULT:      -5.2      0.000      0.000
REMARK  4 active torsions:
REMARK  status: ('A' for Active; 'I' for Inactive)
REMARK    1  A    between atoms: C_1  and  C_6 
REMARK    2  A    between atoms: C_2  and  N_7 
REMARK    3  A    between atoms: C_6  and  O_9 
REMARK    4  A    between atoms: O_9  and  C_12 
ROOT
HETATM    1  C   UNL     1      63.510   9.085   4.792  1.00  0.00     0.079 A 
HETATM    2  C   UNL     1      62.991  10.362   4.978  1.00  0.00     0.085 A 
HETATM    3  S   UNL     1      62.023  10.877   3.674  1.00  0.00    -0.076 SA
HETATM    4  C   UNL     1      63.078   8.539   3.503  1.00  0.00    -0.030 A 
HETATM    5  C   UNL     1      62.280   9.438   2.809  1.00  0.00    -0.012 A 
HETATM    6  C   UNL     1      63.427   7.192   2.940  1.00  0.00     0.050 C 
HETATM    7  C   UNL     1      61.661   9.278   1.457  1.00  0.00     0.057 C 
ENDROOT
BRANCH   1   8
HETATM    8  C   UNL     1      64.381   8.407   5.774  1.00  0.00     0.296 C 
HETATM    9  O   UNL     1      64.052   7.413   6.410  1.00  0.00    -0.259 OA
BRANCH   8  10
HETATM   10  O   UNL     1      65.607   9.004   5.915  1.00  0.00    -0.318 OA
BRANCH  10  11
HETATM   11  C   UNL     1      66.728   8.137   6.140  1.00  0.00     0.174 C 
HETATM   12  C   UNL     1      67.300   7.670   4.816  1.00  0.00     0.034 C 
ENDBRANCH  10  11
ENDBRANCH   8  10
ENDBRANCH   1   8
BRANCH   2  13
HETATM   13  N   UNL     1      63.159  11.205   6.020  1.00  0.00    -0.393 N 
HETATM   14  H   UNL     1      64.065  11.406   6.350  1.00  0.00     0.156 HD
HETATM   15  H   UNL     1      62.376  11.621   6.449  1.00  0.00     0.156 HD
ENDBRANCH   2  13
TORSDOF 4
ENDMDL
MODEL 2
REMARK VINA RESULT:      -4.5      2.042      2.601
REMARK  4 active torsions:
REMARK  status: ('A' for Active; 'I' for Inactive)
REMARK    1  A    between atoms: C_1  and  C_6 
REMARK    2  A    between atoms: C_2  and  N_7 
REMARK    3  A    between atoms: C_6  and  O_9 
REMARK    4  A    between atoms: O_9  and  C_12 
ROOT
HETATM    1  C   UNL     1      62.862   8.439   4.570  1.00  0.00     0.079 A 
HETATM    2  C   UNL     1      62.594   7.717   3.412  1.00  0.00     0.085 A 
HETATM    3  S   UNL     1      62.070   8.705   2.126  1.00  0.00    -0.076 SA
HETATM    4  C   UNL     1      62.607   9.867   4.355  1.00  0.00    -0.030 A 
HETATM    5  C   UNL     1      62.158  10.117   3.066  1.00  0.00    -0.012 A 
HETATM    6  C   UNL     1      62.779  10.967   5.361  1.00  0.00     0.050 C 
HETATM    7  C   UNL     1      61.765  11.425   2.457  1.00  0.00     0.057 C 
ENDROOT
BRANCH   1   8
HETATM    8  C   UNL     1      63.330   7.821   5.828  1.00  0.00     0.296 C 
HETATM    9  O   UNL     1      62.687   7.820   6.870  1.00  0.00    -0.259 OA
BRANCH   8  10
HETATM   10  O   UNL     1      64.570   7.247   5.721  1.00  0.00    -0.318 OA
BRANCH  10  11
HETATM   11  C   UNL     1      65.692   8.137   5.640  1.00  0.00     0.174 C 
HETATM   12  C   UNL     1      66.785   7.522   4.788  1.00  0.00     0.034 C 
ENDBRANCH  10  11
ENDBRANCH   8  10
ENDBRANCH   1   8
BRANCH   2  13
HETATM   13  N   UNL     1      62.688   6.387   3.198  1.00  0.00    -0.393 N 
HETATM   14  H   UNL     1      62.747   5.768   3.961  1.00  0.00     0.156 HD
HETATM   15  H   UNL     1      62.697   6.036   2.278  1.00  0.00     0.156 HD
ENDBRANCH   2  13
TORSDOF 4
ENDMDL
MODEL 3
REMARK VINA RESULT:      -4.2      2.388      3.061
REMARK  4 active torsions:
REMARK  status: ('A' for Active; 'I' for Inactive)
REMARK    1  A    between atoms: C_1  and  C_6 
REMARK    2  A    between atoms: C_2  and  N_7 
REMARK    3  A    between atoms: C_6  and  O_9 
REMARK    4  A    between atoms: O_9  and  C_12 
ROOT
HETATM    1  C   UNL     1      64.311   8.044   4.737  1.00  0.00     0.079 A 
HETATM    2  C   UNL     1      64.370   7.010   3.808  1.00  0.00     0.085 A 
HETATM    3  S   UNL     1      63.281   7.223   2.515  1.00  0.00    -0.076 SA
HETATM    4  C   UNL     1      63.308   9.035   4.337  1.00  0.00    -0.030 A 
HETATM    5  C   UNL     1      62.678   8.677   3.153  1.00  0.00    -0.012 A 
HETATM    6  C   UNL     1      62.950  10.293   5.074  1.00  0.00     0.050 C 
HETATM    7  C   UNL     1      61.588   9.397   2.426  1.00  0.00     0.057 C 
ENDROOT
BRANCH   1   8
HETATM    8  C   UNL     1      65.151   8.101   5.950  1.00  0.00     0.296 C 
HETATM    9  O   UNL     1      66.024   8.938   6.141  1.00  0.00    -0.259 OA
BRANCH   8  10
HETATM   10  O   UNL     1      64.863   7.112   6.855  1.00  0.00    -0.318 OA
BRANCH  10  11
HETATM   11  C   UNL     1      65.951   6.270   7.263  1.00  0.00     0.174 C 
HETATM   12  C   UNL     1      66.262   6.494   8.730  1.00  0.00     0.034 C 
ENDBRANCH  10  11
ENDBRANCH   8  10
ENDBRANCH   1   8
BRANCH   2  13
HETATM   13  N   UNL     1      65.148   5.906   3.814  1.00  0.00    -0.393 N 
HETATM   14  H   UNL     1      65.382   5.464   2.966  1.00  0.00     0.156 HD
HETATM   15  H   UNL     1      65.481   5.543   4.666  1.00  0.00     0.156 HD
ENDBRANCH   2  13
TORSDOF 4
ENDMDL
MODEL 4
REMARK VINA RESULT:      -3.9      2.574      4.353
REMARK  4 active torsions:
REMARK  status: ('A' for Active; 'I' for Inactive)
REMARK    1  A    between atoms: C_1  and  C_6 
REMARK    2  A    between atoms: C_2  and  N_7 
REMARK    3  A    between atoms: C_6  and  O_9 
REMARK    4  A    between atoms: O_9  and  C_12 
ROOT
HETATM    1  C   UNL     1      63.712   7.987   3.976  1.00  0.00     0.079 A 
HETATM    2  C   UNL     1      64.438   8.630   4.973  1.00  0.00     0.085 A 
HETATM    3  S   UNL     1      65.960   7.915   5.247  1.00  0.00    -0.076 SA
HETATM    4  C   UNL     1      64.472   6.853   3.440  1.00  0.00    -0.030 A 
HETATM    5  C   UNL     1      65.699   6.715   4.073  1.00  0.00    -0.012 A 
HETATM    6  C   UNL     1      64.031   5.914   2.355  1.00  0.00     0.050 C 
HETATM    7  C   UNL     1      66.753   5.680   3.841  1.00  0.00     0.057 C 
ENDROOT
BRANCH   1   8
HETATM    8  C   UNL     1      62.363   8.408   3.546  1.00  0.00     0.296 C 
HETATM    9  O   UNL     1      61.340   7.780   3.790  1.00  0.00    -0.259 OA
BRANCH   8  10
HETATM   10  O   UNL     1      62.362   9.579   2.835  1.00  0.00    -0.318 OA
BRANCH  10  11
HETATM   11  C   UNL     1      61.603   9.598   1.618  1.00  0.00     0.174 C 
HETATM   12  C   UNL     1      62.284   8.747   0.564  1.00  0.00     0.034 C 
ENDBRANCH  10  11
ENDBRANCH   8  10
ENDBRANCH   1   8
BRANCH   2  13
HETATM   13  N   UNL     1      64.092   9.701   5.720  1.00  0.00    -0.393 N 
HETATM   14  H   UNL     1      63.658  10.477   5.297  1.00  0.00     0.156 HD
HETATM   15  H   UNL     1      64.273   9.706   6.688  1.00  0.00     0.156 HD
ENDBRANCH   2  13
TORSDOF 4
ENDMDL
MODEL 5
REMARK VINA RESULT:      -3.9      2.001      2.644
REMARK  4 active torsions:
REMARK  status: ('A' for Active; 'I' for Inactive)
REMARK    1  A    between atoms: C_1  and  C_6 
REMARK    2  A    between atoms: C_2  and  N_7 
REMARK    3  A    between atoms: C_6  and  O_9 
REMARK    4  A    between atoms: O_9  and  C_12 
ROOT
HETATM    1  C   UNL     1      62.732   8.025   3.545  1.00  0.00     0.079 A 
HETATM    2  C   UNL     1      62.802   8.710   4.753  1.00  0.00     0.085 A 
HETATM    3  S   UNL     1      62.391  10.357   4.602  1.00  0.00    -0.076 SA
HETATM    4  C   UNL     1      62.325   8.929   2.465  1.00  0.00    -0.030 A 
HETATM    5  C   UNL     1      62.131  10.223   2.929  1.00  0.00    -0.012 A 
HETATM    6  C   UNL     1      62.136   8.569   1.021  1.00  0.00     0.050 C 
HETATM    7  C   UNL     1      61.740  11.439   2.151  1.00  0.00     0.057 C 
ENDROOT
BRANCH   1   8
HETATM    8  C   UNL     1      63.039   6.587   3.402  1.00  0.00     0.296 C 
HETATM    9  O   UNL     1      62.392   5.814   2.706  1.00  0.00    -0.259 OA
BRANCH   8  10
HETATM   10  O   UNL     1      64.126   6.190   4.136  1.00  0.00    -0.318 OA
BRANCH  10  11
HETATM   11  C   UNL     1      65.325   5.888   3.408  1.00  0.00     0.174 C 
HETATM   12  C   UNL     1      66.509   6.596   4.037  1.00  0.00     0.034 C 
ENDBRANCH  10  11
ENDBRANCH   8  10
ENDBRANCH   1   8
BRANCH   2  13
HETATM   13  N   UNL     1      63.147   8.248   5.975  1.00  0.00    -0.393 N 
HETATM   14  H   UNL     1      63.929   8.622   6.440  1.00  0.00     0.156 HD
HETATM   15  H   UNL     1      62.615   7.536   6.400  1.00  0.00     0.156 HD
ENDBRANCH   2  13
TORSDOF 4
ENDMDL
MODEL 6
REMARK VINA RESULT:      -3.8      3.015      4.736
REMARK  4 active torsions:
REMARK  status: ('A' for Active; 'I' for Inactive)
REMARK    1  A    between atoms: C_1  and  C_6 
REMARK    2  A    between atoms: C_2  and  N_7 
REMARK    3  A    between atoms: C_6  and  O_9 
REMARK    4  A    between atoms: O_9  and  C_12 
ROOT
HETATM    1  C   UNL     1      65.639   7.745   5.152  1.00  0.00     0.079 A 
HETATM    2  C   UNL     1      66.635   7.739   6.122  1.00  0.00     0.085 A 
HETATM    3  S   UNL     1      67.663   6.385   6.004  1.00  0.00    -0.076 SA
HETATM    4  C   UNL     1      65.753   6.562   4.293  1.00  0.00    -0.030 A 
HETATM    5  C   UNL     1      66.810   5.750   4.680  1.00  0.00    -0.012 A 
HETATM    6  C   UNL     1      64.867   6.210   3.134  1.00  0.00     0.050 C 
HETATM    7  C   UNL     1      67.246   4.449   4.086  1.00  0.00     0.057 C 
ENDROOT
BRANCH   1   8
HETATM    8  C   UNL     1      64.619   8.806   5.035  1.00  0.00     0.296 C 
HETATM    9  O   UNL     1      64.569   9.791   5.761  1.00  0.00    -0.259 OA
BRANCH   8  10
HETATM   10  O   UNL     1      63.715   8.581   4.030  1.00  0.00    -0.318 OA
BRANCH  10  11
HETATM   11  C   UNL     1      62.334   8.828   4.332  1.00  0.00     0.174 C 
HETATM   12  C   UNL     1      61.550   7.531   4.287  1.00  0.00     0.034 C 
ENDBRANCH  10  11
ENDBRANCH   8  10
ENDBRANCH   1   8
BRANCH   2  13
HETATM   13  N   UNL     1      66.870   8.635   7.106  1.00  0.00    -0.393 N 
HETATM   14  H   UNL     1      67.698   8.580   7.635  1.00  0.00     0.156 HD
HETATM   15  H   UNL     1      66.212   9.343   7.293  1.00  0.00     0.156 HD
ENDBRANCH   2  13
TORSDOF 4
ENDMDL
MODEL 7
REMARK VINA RESULT:      -3.7      2.595      3.725
REMARK  4 active torsions:
REMARK  status: ('A' for Active; 'I' for Inactive)
REMARK    1  A    between atoms: C_1  and  C_6 
REMARK    2  A    between atoms: C_2  and  N_7 
REMARK    3  A    between atoms: C_6  and  O_9 
REMARK    4  A    between atoms: O_9  and  C_12 
ROOT
HETATM    1  C   UNL     1      62.884   8.148   3.253  1.00  0.00     0.079 A 
HETATM    2  C   UNL     1      62.931   8.757   4.502  1.00  0.00     0.085 A 
HETATM    3  S   UNL     1      62.403  10.377   4.465  1.00  0.00    -0.076 SA
HETATM    4  C   UNL     1      62.394   9.088   2.241  1.00  0.00    -0.030 A 
HETATM    5  C   UNL     1      62.119  10.333   2.791  1.00  0.00    -0.012 A 
HETATM    6  C   UNL     1      62.201   8.809   0.779  1.00  0.00     0.050 C 
HETATM    7  C   UNL     1      61.628  11.565   2.101  1.00  0.00     0.057 C 
ENDROOT
BRANCH   1   8
HETATM    8  C   UNL     1      63.287   6.747   3.012  1.00  0.00     0.296 C 
HETATM    9  O   UNL     1      64.450   6.379   2.905  1.00  0.00    -0.259 OA
BRANCH   8  10
HETATM   10  O   UNL     1      62.225   5.887   2.911  1.00  0.00    -0.318 OA
BRANCH  10  11
HETATM   11  C   UNL     1      61.707   5.350   4.136  1.00  0.00     0.174 C 
HETATM   12  C   UNL     1      60.236   5.691   4.274  1.00  0.00     0.034 C 
ENDBRANCH  10  11
ENDBRANCH   8  10
ENDBRANCH   1   8
BRANCH   2  13
HETATM   13  N   UNL     1      63.332   8.243   5.685  1.00  0.00    -0.393 N 
HETATM   14  H   UNL     1      64.284   8.046   5.838  1.00  0.00     0.156 HD
HETATM   15  H   UNL     1      62.673   8.067   6.394  1.00  0.00     0.156 HD
ENDBRANCH   2  13
TORSDOF 4
ENDMDL
MODEL 8
REMARK VINA RESULT:      -3.6      6.862      7.508
REMARK  4 active torsions:
REMARK  status: ('A' for Active; 'I' for Inactive)
REMARK    1  A    between atoms: C_1  and  C_6 
REMARK    2  A    between atoms: C_2  and  N_7 
REMARK    3  A    between atoms: C_6  and  O_9 
REMARK    4  A    between atoms: O_9  and  C_12 
ROOT
HETATM    1  C   UNL     1      58.536   6.162   7.266  1.00  0.00     0.079 A 
HETATM    2  C   UNL     1      59.570   5.871   6.383  1.00  0.00     0.085 A 
HETATM    3  S   UNL     1      59.081   5.935   4.751  1.00  0.00    -0.076 SA
HETATM    4  C   UNL     1      57.297   6.438   6.532  1.00  0.00    -0.030 A 
HETATM    5  C   UNL     1      57.479   6.325   5.161  1.00  0.00    -0.012 A 
HETATM    6  C   UNL     1      55.965   6.791   7.128  1.00  0.00     0.050 C 
HETATM    7  C   UNL     1      56.469   6.502   4.073  1.00  0.00     0.057 C 
ENDROOT
BRANCH   1   8
HETATM    8  C   UNL     1      58.695   6.173   8.735  1.00  0.00     0.296 C 
HETATM    9  O   UNL     1      58.407   7.127   9.447  1.00  0.00    -0.259 OA
BRANCH   8  10
HETATM   10  O   UNL     1      59.209   5.004   9.234  1.00  0.00    -0.318 OA
BRANCH  10  11
HETATM   11  C   UNL     1      58.331   3.870   9.259  1.00  0.00     0.174 C 
HETATM   12  C   UNL     1      58.339   3.235  10.636  1.00  0.00     0.034 C 
ENDBRANCH  10  11
ENDBRANCH   8  10
ENDBRANCH   1   8
BRANCH   2  13
HETATM   13  N   UNL     1      60.855   5.552   6.652  1.00  0.00    -0.393 N 
HETATM   14  H   UNL     1      61.161   4.622   6.559  1.00  0.00     0.156 HD
HETATM   15  H   UNL     1      61.485   6.251   6.941  1.00  0.00     0.156 HD
ENDBRANCH   2  13
TORSDOF 4
ENDMDL
MODEL 9
REMARK VINA RESULT:      -3.5      2.961      4.761
REMARK  4 active torsions:
REMARK  status: ('A' for Active; 'I' for Inactive)
REMARK    1  A    between atoms: C_1  and  C_6 
REMARK    2  A    between atoms: C_2  and  N_7 
REMARK    3  A    between atoms: C_6  and  O_9 
REMARK    4  A    between atoms: O_9  and  C_12 
ROOT
HETATM    1  C   UNL     1      64.119   7.531   4.404  1.00  0.00     0.079 A 
HETATM    2  C   UNL     1      63.349   6.456   3.972  1.00  0.00     0.085 A 
HETATM    3  S   UNL     1      64.262   5.032   3.764  1.00  0.00    -0.076 SA
HETATM    4  C   UNL     1      65.522   7.130   4.552  1.00  0.00    -0.030 A 
HETATM    5  C   UNL     1      65.711   5.797   4.214  1.00  0.00    -0.012 A 
HETATM    6  C   UNL     1      66.659   8.003   4.997  1.00  0.00     0.050 C 
HETATM    7  C   UNL     1      66.984   5.013   4.206  1.00  0.00     0.057 C 
ENDROOT
BRANCH   1   8
HETATM    8  C   UNL     1      63.571   8.878   4.659  1.00  0.00     0.296 C 
HETATM    9  O   UNL     1      63.685   9.474   5.723  1.00  0.00    -0.259 OA
BRANCH   8  10
HETATM   10  O   UNL     1      62.907   9.406   3.582  1.00  0.00    -0.318 OA
BRANCH  10  11
HETATM   11  C   UNL     1      62.073  10.547   3.830  1.00  0.00     0.174 C 
HETATM   12  C   UNL     1      61.825  11.303   2.540  1.00  0.00     0.034 C 
ENDBRANCH  10  11
ENDBRANCH   8  10
ENDBRANCH   1   8
BRANCH   2  13
HETATM   13  N   UNL     1      62.026   6.411   3.705  1.00  0.00    -0.393 N 
HETATM   14  H   UNL     1      61.478   7.224   3.791  1.00  0.00     0.156 HD
HETATM   15  H   UNL     1      61.609   5.565   3.423  1.00  0.00     0.156 HD
ENDBRANCH   2  13
TORSDOF 4
ENDMDL
