MODEL 1
REMARK VINA RESULT:      -3.8      0.000      0.000
REMARK  1 active torsions:
REMARK  status: ('A' for Active; 'I' for Inactive)
REMARK    1  A    between atoms: C_1  and  C_2 
ROOT
HETATM    1  C   UNL     1      61.918   9.690   2.966  1.00  0.00     0.347 C 
HETATM    2  N   UNL     1      60.666   9.067   3.443  1.00  0.00    -0.051 N 
HETATM    3  S   UNL     1      62.031   9.282   1.212  1.00  0.00    -0.124 SA
HETATM    4  C   UNL     1      60.552   7.745   2.812  1.00  0.00     0.244 C 
HETATM    5  C   UNL     1      61.256   7.675   1.455  1.00  0.00     0.104 C 
HETATM    6  H   UNL     1      59.868   9.646   3.182  1.00  0.00     0.279 HD
HETATM    7  H   UNL     1      60.678   8.977   4.459  1.00  0.00     0.279 HD
ENDROOT
BRANCH   1   8
HETATM    8  C   UNL     1      61.902  11.211   3.168  1.00  0.00     0.215 C 
HETATM    9  O   UNL     1      61.882  11.799   4.242  1.00  0.00    -0.646 OA
HETATM   10  O   UNL     1      61.975  11.921   2.016  1.00  0.00    -0.646 OA
ENDBRANCH   1   8
TORSDOF 1
ENDMDL
MODEL 2
REMARK VINA RESULT:      -3.7      1.843      2.060
REMARK  1 active torsions:
REMARK  status: ('A' for Active; 'I' for Inactive)
REMARK    1  A    between atoms: C_1  and  C_2 
ROOT
HETATM    1  C   UNL     1      61.881   9.852   3.780  1.00  0.00     0.347 C 
HETATM    2  N   UNL     1      61.684  10.452   2.445  1.00  0.00    -0.051 N 
HETATM    3  S   UNL     1      63.067   8.514   3.547  1.00  0.00    -0.124 SA
HETATM    4  C   UNL     1      61.635   9.360   1.463  1.00  0.00     0.244 C 
HETATM    5  C   UNL     1      62.433   8.131   1.905  1.00  0.00     0.104 C 
HETATM    6  H   UNL     1      62.459  11.079   2.228  1.00  0.00     0.279 HD
HETATM    7  H   UNL     1      60.819  10.992   2.421  1.00  0.00     0.279 HD
ENDROOT
BRANCH   1   8
HETATM    8  C   UNL     1      62.416  10.880   4.786  1.00  0.00     0.215 C 
HETATM    9  O   UNL     1      63.229  10.667   5.678  1.00  0.00    -0.646 OA
HETATM   10  O   UNL     1      61.952  12.138   4.588  1.00  0.00    -0.646 OA
ENDBRANCH   1   8
TORSDOF 1
ENDMDL
MODEL 3
REMARK VINA RESULT:      -3.6      1.837      2.283
REMARK  1 active torsions:
REMARK  status: ('A' for Active; 'I' for Inactive)
REMARK    1  A    between atoms: C_1  and  C_2 
ROOT
HETATM    1  C   UNL     1      61.890   9.807   3.275  1.00  0.00     0.347 C 
HETATM    2  N   UNL     1      62.353   9.159   2.031  1.00  0.00    -0.051 N 
HETATM    3  S   UNL     1      63.023   9.260   4.567  1.00  0.00    -0.124 SA
HETATM    4  C   UNL     1      62.753   7.784   2.362  1.00  0.00     0.244 C 
HETATM    5  C   UNL     1      63.228   7.639   3.810  1.00  0.00     0.104 C 
HETATM    6  H   UNL     1      63.150   9.669   1.650  1.00  0.00     0.279 HD
HETATM    7  H   UNL     1      61.610   9.156   1.333  1.00  0.00     0.279 HD
ENDROOT
BRANCH   1   8
HETATM    8  C   UNL     1      61.906  11.337   3.153  1.00  0.00     0.215 C 
HETATM    9  O   UNL     1      61.906  11.981   2.110  1.00  0.00    -0.646 OA
HETATM   10  O   UNL     1      61.862  11.985   4.342  1.00  0.00    -0.646 OA
ENDBRANCH   1   8
TORSDOF 1
ENDMDL
MODEL 4
REMARK VINA RESULT:      -3.6      2.628      2.870
REMARK  1 active torsions:
REMARK  status: ('A' for Active; 'I' for Inactive)
REMARK    1  A    between atoms: C_1  and  C_2 
ROOT
HETATM    1  C   UNL     1      63.124   9.490   4.980  1.00  0.00     0.347 C 
HETATM    2  N   UNL     1      62.987   8.504   6.072  1.00  0.00    -0.051 N 
HETATM    3  S   UNL     1      61.861   9.059   3.767  1.00  0.00    -0.124 SA
HETATM    4  C   UNL     1      62.728   7.192   5.462  1.00  0.00     0.244 C 
HETATM    5  C   UNL     1      62.023   7.298   4.108  1.00  0.00     0.104 C 
HETATM    6  H   UNL     1      62.210   8.763   6.679  1.00  0.00     0.279 HD
HETATM    7  H   UNL     1      63.838   8.474   6.633  1.00  0.00     0.279 HD
ENDROOT
BRANCH   1   8
HETATM    8  C   UNL     1      62.918  10.924   5.488  1.00  0.00     0.215 C 
HETATM    9  O   UNL     1      63.422  11.417   6.491  1.00  0.00    -0.646 OA
HETATM   10  O   UNL     1      62.141  11.688   4.683  1.00  0.00    -0.646 OA
ENDBRANCH   1   8
TORSDOF 1
ENDMDL
MODEL 5
REMARK VINA RESULT:      -3.4      3.746      4.204
REMARK  1 active torsions:
REMARK  status: ('A' for Active; 'I' for Inactive)
REMARK    1  A    between atoms: C_1  and  C_2 
ROOT
HETATM    1  C   UNL     1      63.559   9.084   4.978  1.00  0.00     0.347 C 
HETATM    2  N   UNL     1      64.891   9.110   5.616  1.00  0.00    -0.051 N 
HETATM    3  S   UNL     1      62.646   7.763   5.801  1.00  0.00    -0.124 SA
HETATM    4  C   UNL     1      65.312   7.719   5.836  1.00  0.00     0.244 C 
HETATM    5  C   UNL     1      64.129   6.765   6.016  1.00  0.00     0.104 C 
HETATM    6  H   UNL     1      64.840   9.601   6.508  1.00  0.00     0.279 HD
HETATM    7  H   UNL     1      65.562   9.595   5.020  1.00  0.00     0.279 HD
ENDROOT
BRANCH   1   8
HETATM    8  C   UNL     1      62.832  10.425   5.139  1.00  0.00     0.215 C 
HETATM    9  O   UNL     1      61.960  10.871   4.403  1.00  0.00    -0.646 OA
HETATM   10  O   UNL     1      63.190  11.117   6.248  1.00  0.00    -0.646 OA
ENDBRANCH   1   8
TORSDOF 1
ENDMDL
MODEL 6
REMARK VINA RESULT:      -3.3      5.404      5.731
REMARK  1 active torsions:
REMARK  status: ('A' for Active; 'I' for Inactive)
REMARK    1  A    between atoms: C_1  and  C_2 
ROOT
HETATM    1  C   UNL     1      65.247   7.867   5.628  1.00  0.00     0.347 C 
HETATM    2  N   UNL     1      66.238   8.354   6.610  1.00  0.00    -0.051 N 
HETATM    3  S   UNL     1      64.287   6.603   6.483  1.00  0.00    -0.124 SA
HETATM    4  C   UNL     1      66.736   7.192   7.359  1.00  0.00     0.244 C 
HETATM    5  C   UNL     1      65.712   6.058   7.441  1.00  0.00     0.104 C 
HETATM    6  H   UNL     1      65.798   9.015   7.249  1.00  0.00     0.279 HD
HETATM    7  H   UNL     1      67.007   8.827   6.135  1.00  0.00     0.279 HD
ENDROOT
BRANCH   1   8
HETATM    8  C   UNL     1      64.336   9.001   5.140  1.00  0.00     0.215 C 
HETATM    9  O   UNL     1      64.225  10.112   5.646  1.00  0.00    -0.646 OA
HETATM   10  O   UNL     1      63.652   8.711   4.007  1.00  0.00    -0.646 OA
ENDBRANCH   1   8
TORSDOF 1
ENDMDL
MODEL 7
REMARK VINA RESULT:      -3.3      7.469      7.773
REMARK  1 active torsions:
REMARK  status: ('A' for Active; 'I' for Inactive)
REMARK    1  A    between atoms: C_1  and  C_2 
ROOT
HETATM    1  C   UNL     1      66.903   6.765   6.907  1.00  0.00     0.347 C 
HETATM    2  N   UNL     1      67.265   7.289   8.240  1.00  0.00    -0.051 N 
HETATM    3  S   UNL     1      66.058   5.200   7.206  1.00  0.00    -0.124 SA
HETATM    4  C   UNL     1      67.720   6.157   9.059  1.00  0.00     0.244 C 
HETATM    5  C   UNL     1      67.085   4.829   8.638  1.00  0.00     0.104 C 
HETATM    6  H   UNL     1      66.453   7.726   8.674  1.00  0.00     0.279 HD
HETATM    7  H   UNL     1      68.002   7.989   8.159  1.00  0.00     0.279 HD
ENDROOT
BRANCH   1   8
HETATM    8  C   UNL     1      65.989   7.737   6.150  1.00  0.00     0.215 C 
HETATM    9  O   UNL     1      64.802   7.942   6.376  1.00  0.00    -0.646 OA
HETATM   10  O   UNL     1      66.620   8.450   5.186  1.00  0.00    -0.646 OA
ENDBRANCH   1   8
TORSDOF 1
ENDMDL
MODEL 8
REMARK VINA RESULT:      -3.1      7.281      7.768
REMARK  1 active torsions:
REMARK  status: ('A' for Active; 'I' for Inactive)
REMARK    1  A    between atoms: C_1  and  C_2 
ROOT
HETATM    1  C   UNL     1      66.079   6.293   6.939  1.00  0.00     0.347 C 
HETATM    2  N   UNL     1      65.301   7.544   6.840  1.00  0.00    -0.051 N 
HETATM    3  S   UNL     1      67.643   6.619   6.104  1.00  0.00    -0.124 SA
HETATM    4  C   UNL     1      65.511   8.098   5.495  1.00  0.00     0.244 C 
HETATM    5  C   UNL     1      66.863   7.705   4.898  1.00  0.00     0.104 C 
HETATM    6  H   UNL     1      65.621   8.210   7.542  1.00  0.00     0.279 HD
HETATM    7  H   UNL     1      64.310   7.362   6.999  1.00  0.00     0.279 HD
ENDROOT
BRANCH   1   8
HETATM    8  C   UNL     1      66.319   5.895   8.402  1.00  0.00     0.215 C 
HETATM    9  O   UNL     1      66.611   6.651   9.321  1.00  0.00    -0.646 OA
HETATM   10  O   UNL     1      66.122   4.578   8.655  1.00  0.00    -0.646 OA
ENDBRANCH   1   8
TORSDOF 1
ENDMDL
MODEL 9
REMARK VINA RESULT:      -3.0      4.926      5.338
REMARK  1 active torsions:
REMARK  status: ('A' for Active; 'I' for Inactive)
REMARK    1  A    between atoms: C_1  and  C_2 
ROOT
HETATM    1  C   UNL     1      64.857   7.778   5.647  1.00  0.00     0.347 C 
HETATM    2  N   UNL     1      64.368   9.151   5.408  1.00  0.00    -0.051 N 
HETATM    3  S   UNL     1      64.837   6.962   4.038  1.00  0.00    -0.124 SA
HETATM    4  C   UNL     1      63.259   9.073   4.446  1.00  0.00     0.244 C 
HETATM    5  C   UNL     1      63.374   7.868   3.509  1.00  0.00     0.104 C 
HETATM    6  H   UNL     1      65.118   9.726   5.025  1.00  0.00     0.279 HD
HETATM    7  H   UNL     1      64.053   9.574   6.281  1.00  0.00     0.279 HD
ENDROOT
BRANCH   1   8
HETATM    8  C   UNL     1      66.274   7.780   6.235  1.00  0.00     0.215 C 
HETATM    9  O   UNL     1      67.096   6.875   6.150  1.00  0.00    -0.646 OA
HETATM   10  O   UNL     1      66.615   8.940   6.848  1.00  0.00    -0.646 OA
ENDBRANCH   1   8
TORSDOF 1
ENDMDL
