MODEL 1
REMARK VINA RESULT:      -3.9      0.000      0.000
REMARK  2 active torsions:
REMARK  status: ('A' for Active; 'I' for Inactive)
REMARK    1  A    between atoms: C_1  and  C_2 
REMARK    2  A    between atoms: C_2  and  O_6 
ROOT
HETATM    1  C   UNL     1      61.881   9.624   2.919  1.00  0.00     0.346 C 
HETATM    2  N   UNL     1      60.613   9.044   3.362  1.00  0.00    -0.052 N 
HETATM    3  S   UNL     1      62.082   9.229   1.155  1.00  0.00    -0.125 SA
HETATM    4  C   UNL     1      60.442   7.772   2.643  1.00  0.00     0.244 C 
HETATM    5  C   UNL     1      61.607   7.572   1.679  1.00  0.00     0.104 C 
HETATM    6  H   UNL     1      59.843   9.676   3.143  1.00  0.00     0.279 HD
HETATM    7  H   UNL     1      60.617   8.891   4.371  1.00  0.00     0.279 HD
ENDROOT
BRANCH   1   8
HETATM    8  C   UNL     1      61.949  11.111   3.159  1.00  0.00     0.299 C 
HETATM    9  O   UNL     1      61.937  11.870   2.199  1.00  0.00    -0.262 OA
BRANCH   8  10
HETATM   10  O   UNL     1      61.988  11.599   4.423  1.00  0.00    -0.324 OA
HETATM   11  C   UNL     1      62.795  11.076   5.413  1.00  0.00     0.213 C 
ENDBRANCH   8  10
ENDBRANCH   1   8
TORSDOF 2
ENDMDL
MODEL 2
REMARK VINA RESULT:      -3.7      6.396      7.136
REMARK  2 active torsions:
REMARK  status: ('A' for Active; 'I' for Inactive)
REMARK    1  A    between atoms: C_1  and  C_2 
REMARK    2  A    between atoms: C_2  and  O_6 
ROOT
HETATM    1  C   UNL     1      66.918   7.017   6.883  1.00  0.00     0.346 C 
HETATM    2  N   UNL     1      67.287   7.568   8.187  1.00  0.00    -0.052 N 
HETATM    3  S   UNL     1      65.503   5.901   7.135  1.00  0.00    -0.125 SA
HETATM    4  C   UNL     1      67.074   6.506   9.183  1.00  0.00     0.244 C 
HETATM    5  C   UNL     1      66.502   5.271   8.496  1.00  0.00     0.104 C 
HETATM    6  H   UNL     1      66.701   8.374   8.405  1.00  0.00     0.279 HD
HETATM    7  H   UNL     1      68.259   7.876   8.189  1.00  0.00     0.279 HD
ENDROOT
BRANCH   1   8
HETATM    8  C   UNL     1      66.595   8.090   5.875  1.00  0.00     0.299 C 
HETATM    9  O   UNL     1      67.334   8.244   4.911  1.00  0.00    -0.262 OA
BRANCH   8  10
HETATM   10  O   UNL     1      65.482   8.851   6.018  1.00  0.00    -0.324 OA
HETATM   11  C   UNL     1      64.457   8.876   5.093  1.00  0.00     0.213 C 
ENDBRANCH   8  10
ENDBRANCH   1   8
TORSDOF 2
ENDMDL
MODEL 3
REMARK VINA RESULT:      -3.7      2.983      3.647
REMARK  2 active torsions:
REMARK  status: ('A' for Active; 'I' for Inactive)
REMARK    1  A    between atoms: C_1  and  C_2 
REMARK    2  A    between atoms: C_2  and  O_6 
ROOT
HETATM    1  C   UNL     1      63.522   9.292   4.804  1.00  0.00     0.346 C 
HETATM    2  N   UNL     1      64.730   9.053   5.594  1.00  0.00    -0.052 N 
HETATM    3  S   UNL     1      62.428   7.855   5.019  1.00  0.00    -0.125 SA
HETATM    4  C   UNL     1      65.020   7.612   5.520  1.00  0.00     0.244 C 
HETATM    5  C   UNL     1      63.934   6.916   4.707  1.00  0.00     0.104 C 
HETATM    6  H   UNL     1      64.574   9.329   6.564  1.00  0.00     0.279 HD
HETATM    7  H   UNL     1      65.513   9.599   5.234  1.00  0.00     0.279 HD
ENDROOT
BRANCH   1   8
HETATM    8  C   UNL     1      62.827  10.573   5.189  1.00  0.00     0.299 C 
HETATM    9  O   UNL     1      63.153  11.141   6.223  1.00  0.00    -0.262 OA
BRANCH   8  10
HETATM   10  O   UNL     1      61.877  11.105   4.381  1.00  0.00    -0.324 OA
HETATM   11  C   UNL     1      61.914  11.013   3.004  1.00  0.00     0.213 C 
ENDBRANCH   8  10
ENDBRANCH   1   8
TORSDOF 2
ENDMDL
MODEL 4
REMARK VINA RESULT:      -3.4      4.731      5.474
REMARK  2 active torsions:
REMARK  status: ('A' for Active; 'I' for Inactive)
REMARK    1  A    between atoms: C_1  and  C_2 
REMARK    2  A    between atoms: C_2  and  O_6 
ROOT
HETATM    1  C   UNL     1      65.276   7.864   5.649  1.00  0.00     0.346 C 
HETATM    2  N   UNL     1      66.269   8.353   6.606  1.00  0.00    -0.052 N 
HETATM    3  S   UNL     1      64.303   6.568   6.477  1.00  0.00    -0.125 SA
HETATM    4  C   UNL     1      66.703   7.199   7.409  1.00  0.00     0.244 C 
HETATM    5  C   UNL     1      65.922   5.960   6.985  1.00  0.00     0.104 C 
HETATM    6  H   UNL     1      65.854   9.062   7.209  1.00  0.00     0.279 HD
HETATM    7  H   UNL     1      67.061   8.775   6.121  1.00  0.00     0.279 HD
ENDROOT
BRANCH   1   8
HETATM    8  C   UNL     1      64.389   8.965   5.127  1.00  0.00     0.299 C 
HETATM    9  O   UNL     1      64.367  10.040   5.711  1.00  0.00    -0.262 OA
BRANCH   8  10
HETATM   10  O   UNL     1      63.652   8.776   4.005  1.00  0.00    -0.324 OA
HETATM   11  C   UNL     1      62.415   9.354   3.803  1.00  0.00     0.213 C 
ENDBRANCH   8  10
ENDBRANCH   1   8
TORSDOF 2
ENDMDL
MODEL 5
REMARK VINA RESULT:      -3.4      3.591      4.408
REMARK  2 active torsions:
REMARK  status: ('A' for Active; 'I' for Inactive)
REMARK    1  A    between atoms: C_1  and  C_2 
REMARK    2  A    between atoms: C_2  and  O_6 
ROOT
HETATM    1  C   UNL     1      62.893   8.738   5.271  1.00  0.00     0.346 C 
HETATM    2  N   UNL     1      63.191  10.103   5.702  1.00  0.00    -0.052 N 
HETATM    3  S   UNL     1      62.834   8.734   3.452  1.00  0.00    -0.125 SA
HETATM    4  C   UNL     1      62.511  11.013   4.767  1.00  0.00     0.244 C 
HETATM    5  C   UNL     1      61.812  10.199   3.683  1.00  0.00     0.104 C 
HETATM    6  H   UNL     1      64.197  10.266   5.679  1.00  0.00     0.279 HD
HETATM    7  H   UNL     1      62.869  10.260   6.658  1.00  0.00     0.279 HD
ENDROOT
BRANCH   1   8
HETATM    8  C   UNL     1      63.895   7.738   5.789  1.00  0.00     0.299 C 
HETATM    9  O   UNL     1      63.722   7.237   6.892  1.00  0.00    -0.262 OA
BRANCH   8  10
HETATM   10  O   UNL     1      64.955   7.375   5.026  1.00  0.00    -0.324 OA
HETATM   11  C   UNL     1      66.232   7.861   5.221  1.00  0.00     0.213 C 
ENDBRANCH   8  10
ENDBRANCH   1   8
TORSDOF 2
ENDMDL
MODEL 6
REMARK VINA RESULT:      -3.3      2.399      2.804
REMARK  2 active torsions:
REMARK  status: ('A' for Active; 'I' for Inactive)
REMARK    1  A    between atoms: C_1  and  C_2 
REMARK    2  A    between atoms: C_2  and  O_6 
ROOT
HETATM    1  C   UNL     1      62.898   8.988   4.090  1.00  0.00     0.346 C 
HETATM    2  N   UNL     1      61.954   7.961   4.529  1.00  0.00    -0.052 N 
HETATM    3  S   UNL     1      61.978  10.189   3.079  1.00  0.00    -0.125 SA
HETATM    4  C   UNL     1      60.999   7.750   3.429  1.00  0.00     0.244 C 
HETATM    5  C   UNL     1      61.317   8.710   2.288  1.00  0.00     0.104 C 
HETATM    6  H   UNL     1      61.460   8.273   5.365  1.00  0.00     0.279 HD
HETATM    7  H   UNL     1      62.441   7.094   4.757  1.00  0.00     0.279 HD
ENDROOT
BRANCH   1   8
HETATM    8  C   UNL     1      63.592   9.664   5.246  1.00  0.00     0.299 C 
HETATM    9  O   UNL     1      62.980  10.495   5.904  1.00  0.00    -0.262 OA
BRANCH   8  10
HETATM   10  O   UNL     1      64.864   9.327   5.571  1.00  0.00    -0.324 OA
HETATM   11  C   UNL     1      65.476   8.167   5.141  1.00  0.00     0.213 C 
ENDBRANCH   8  10
ENDBRANCH   1   8
TORSDOF 2
ENDMDL
MODEL 7
REMARK VINA RESULT:      -3.2      7.331      8.124
REMARK  2 active torsions:
REMARK  status: ('A' for Active; 'I' for Inactive)
REMARK    1  A    between atoms: C_1  and  C_2 
REMARK    2  A    between atoms: C_2  and  O_6 
ROOT
HETATM    1  C   UNL     1      66.553   7.131   7.533  1.00  0.00     0.346 C 
HETATM    2  N   UNL     1      67.697   7.163   6.622  1.00  0.00    -0.052 N 
HETATM    3  S   UNL     1      65.071   6.758   6.545  1.00  0.00    -0.125 SA
HETATM    4  C   UNL     1      67.226   7.738   5.352  1.00  0.00     0.244 C 
HETATM    5  C   UNL     1      65.732   8.025   5.447  1.00  0.00     0.104 C 
HETATM    6  H   UNL     1      68.049   6.217   6.469  1.00  0.00     0.279 HD
HETATM    7  H   UNL     1      68.457   7.721   7.013  1.00  0.00     0.279 HD
ENDROOT
BRANCH   1   8
HETATM    8  C   UNL     1      66.733   6.134   8.649  1.00  0.00     0.299 C 
HETATM    9  O   UNL     1      67.223   6.506   9.707  1.00  0.00    -0.262 OA
BRANCH   8  10
HETATM   10  O   UNL     1      66.323   4.851   8.492  1.00  0.00    -0.324 OA
HETATM   11  C   UNL     1      67.182   3.812   8.194  1.00  0.00     0.213 C 
ENDBRANCH   8  10
ENDBRANCH   1   8
TORSDOF 2
ENDMDL
MODEL 8
REMARK VINA RESULT:      -3.1      4.485      4.809
REMARK  2 active torsions:
REMARK  status: ('A' for Active; 'I' for Inactive)
REMARK    1  A    between atoms: C_1  and  C_2 
REMARK    2  A    between atoms: C_2  and  O_6 
ROOT
HETATM    1  C   UNL     1      64.506   7.423   5.366  1.00  0.00     0.346 C 
HETATM    2  N   UNL     1      63.602   7.404   6.516  1.00  0.00    -0.052 N 
HETATM    3  S   UNL     1      63.496   7.669   3.873  1.00  0.00    -0.125 SA
HETATM    4  C   UNL     1      62.362   6.741   6.082  1.00  0.00     0.244 C 
HETATM    5  C   UNL     1      62.466   6.383   4.604  1.00  0.00     0.104 C 
HETATM    6  H   UNL     1      63.401   8.357   6.820  1.00  0.00     0.279 HD
HETATM    7  H   UNL     1      64.023   6.905   7.301  1.00  0.00     0.279 HD
ENDROOT
BRANCH   1   8
HETATM    8  C   UNL     1      65.570   8.484   5.489  1.00  0.00     0.299 C 
HETATM    9  O   UNL     1      65.301   9.535   6.057  1.00  0.00    -0.262 OA
BRANCH   8  10
HETATM   10  O   UNL     1      66.817   8.261   5.006  1.00  0.00    -0.324 OA
HETATM   11  C   UNL     1      67.375   7.003   4.898  1.00  0.00     0.213 C 
ENDBRANCH   8  10
ENDBRANCH   1   8
TORSDOF 2
ENDMDL
MODEL 9
REMARK VINA RESULT:      -3.0      5.431      5.847
REMARK  2 active torsions:
REMARK  status: ('A' for Active; 'I' for Inactive)
REMARK    1  A    between atoms: C_1  and  C_2 
REMARK    2  A    between atoms: C_2  and  O_6 
ROOT
HETATM    1  C   UNL     1      65.698   7.124   5.111  1.00  0.00     0.346 C 
HETATM    2  N   UNL     1      66.933   6.923   4.352  1.00  0.00    -0.052 N 
HETATM    3  S   UNL     1      65.546   5.748   6.292  1.00  0.00    -0.125 SA
HETATM    4  C   UNL     1      67.091   5.473   4.155  1.00  0.00     0.244 C 
HETATM    5  C   UNL     1      65.955   4.738   4.857  1.00  0.00     0.104 C 
HETATM    6  H   UNL     1      67.728   7.294   4.872  1.00  0.00     0.279 HD
HETATM    7  H   UNL     1      66.890   7.407   3.455  1.00  0.00     0.279 HD
ENDROOT
BRANCH   1   8
HETATM    8  C   UNL     1      65.666   8.456   5.815  1.00  0.00     0.299 C 
HETATM    9  O   UNL     1      66.529   8.713   6.645  1.00  0.00    -0.262 OA
BRANCH   8  10
HETATM   10  O   UNL     1      64.714   9.370   5.506  1.00  0.00    -0.324 OA
HETATM   11  C   UNL     1      63.566   9.062   4.803  1.00  0.00     0.213 C 
ENDBRANCH   8  10
ENDBRANCH   1   8
TORSDOF 2
ENDMDL
