MODEL 1
REMARK VINA RESULT:      -4.0      0.000      0.000
REMARK  1 active torsions:
REMARK  status: ('A' for Active; 'I' for Inactive)
REMARK    1  A    between atoms: C_2  and  C_3 
ROOT
HETATM    1  S   UNL     1      64.119   6.464   3.905  1.00  0.00    -0.151 SA
HETATM    2  C   UNL     1      63.045   7.835   4.423  1.00  0.00     0.094 C 
HETATM    3  C   UNL     1      63.769   8.596   5.527  1.00  0.00     0.099 C 
HETATM    4  C   UNL     1      65.239   8.262   5.471  1.00  0.00     0.137 C 
HETATM    5  C   UNL     1      65.647   7.282   4.405  1.00  0.00     0.152 C 
HETATM    6  O   UNL     1      66.047   8.758   6.255  1.00  0.00    -0.297 OA
ENDROOT
BRANCH   2   7
HETATM    7  C   UNL     1      62.598   8.645   3.230  1.00  0.00    -0.003 A 
HETATM    8  S   UNL     1      62.025  10.259   3.355  1.00  0.00    -0.105 SA
HETATM    9  C   UNL     1      61.767  10.373   1.670  1.00  0.00     0.050 A 
HETATM   10  C   UNL     1      62.128   9.221   1.009  1.00  0.00     0.008 A 
HETATM   11  C   UNL     1      62.610   8.230   1.908  1.00  0.00     0.016 A 
ENDBRANCH   2   7
TORSDOF 1
ENDMDL
MODEL 2
REMARK VINA RESULT:      -3.8      1.915      2.366
REMARK  1 active torsions:
REMARK  status: ('A' for Active; 'I' for Inactive)
REMARK    1  A    between atoms: C_2  and  C_3 
ROOT
HETATM    1  S   UNL     1      65.916   7.581   4.453  1.00  0.00    -0.151 SA
HETATM    2  C   UNL     1      64.138   7.336   4.733  1.00  0.00     0.094 C 
HETATM    3  C   UNL     1      63.965   6.793   6.148  1.00  0.00     0.099 C 
HETATM    4  C   UNL     1      65.211   7.090   6.944  1.00  0.00     0.137 C 
HETATM    5  C   UNL     1      66.308   7.803   6.201  1.00  0.00     0.152 C 
HETATM    6  O   UNL     1      65.319   6.762   8.125  1.00  0.00    -0.297 OA
ENDROOT
BRANCH   2   7
HETATM    7  C   UNL     1      63.366   8.588   4.395  1.00  0.00    -0.003 A 
HETATM    8  S   UNL     1      62.476   8.775   2.938  1.00  0.00    -0.105 SA
HETATM    9  C   UNL     1      61.975  10.352   3.363  1.00  0.00     0.050 A 
HETATM   10  C   UNL     1      62.448  10.733   4.598  1.00  0.00     0.008 A 
HETATM   11  C   UNL     1      63.243   9.715   5.192  1.00  0.00     0.016 A 
ENDBRANCH   2   7
TORSDOF 1
ENDMDL
MODEL 3
REMARK VINA RESULT:      -3.7      2.372      3.532
REMARK  1 active torsions:
REMARK  status: ('A' for Active; 'I' for Inactive)
REMARK    1  A    between atoms: C_2  and  C_3 
ROOT
HETATM    1  S   UNL     1      61.943  10.234   3.617  1.00  0.00    -0.151 SA
HETATM    2  C   UNL     1      62.318   8.466   3.430  1.00  0.00     0.094 C 
HETATM    3  C   UNL     1      63.654   8.203   4.115  1.00  0.00     0.099 C 
HETATM    4  C   UNL     1      63.947   9.333   5.071  1.00  0.00     0.137 C 
HETATM    5  C   UNL     1      62.918  10.429   5.122  1.00  0.00     0.152 C 
HETATM    6  O   UNL     1      64.968   9.353   5.757  1.00  0.00    -0.297 OA
ENDROOT
BRANCH   2   7
HETATM    7  C   UNL     1      61.152   7.621   3.885  1.00  0.00    -0.003 A 
HETATM    8  S   UNL     1      61.273   6.458   5.143  1.00  0.00    -0.105 SA
HETATM    9  C   UNL     1      59.628   6.022   4.994  1.00  0.00     0.050 A 
HETATM   10  C   UNL     1      58.980   6.755   4.025  1.00  0.00     0.008 A 
HETATM   11  C   UNL     1      59.858   7.678   3.393  1.00  0.00     0.016 A 
ENDBRANCH   2   7
TORSDOF 1
ENDMDL
MODEL 4
REMARK VINA RESULT:      -3.7      3.213      4.765
REMARK  1 active torsions:
REMARK  status: ('A' for Active; 'I' for Inactive)
REMARK    1  A    between atoms: C_2  and  C_3 
ROOT
HETATM    1  S   UNL     1      61.896   6.404   1.972  1.00  0.00    -0.151 SA
HETATM    2  C   UNL     1      62.283   8.168   1.772  1.00  0.00     0.094 C 
HETATM    3  C   UNL     1      61.105   8.821   1.058  1.00  0.00     0.099 C 
HETATM    4  C   UNL     1      59.895   7.930   1.193  1.00  0.00     0.137 C 
HETATM    5  C   UNL     1      60.108   6.646   1.946  1.00  0.00     0.152 C 
HETATM    6  O   UNL     1      58.806   8.239   0.709  1.00  0.00    -0.297 OA
ENDROOT
BRANCH   2   7
HETATM    7  C   UNL     1      62.692   8.779   3.091  1.00  0.00    -0.003 A 
HETATM    8  S   UNL     1      61.978  10.207   3.722  1.00  0.00    -0.105 SA
HETATM    9  C   UNL     1      62.963  10.167   5.118  1.00  0.00     0.050 A 
HETATM   10  C   UNL     1      63.807   9.080   5.128  1.00  0.00     0.008 A 
HETATM   11  C   UNL     1      63.646   8.280   3.964  1.00  0.00     0.016 A 
ENDBRANCH   2   7
TORSDOF 1
ENDMDL
MODEL 5
REMARK VINA RESULT:      -3.5      1.117      1.217
REMARK  1 active torsions:
REMARK  status: ('A' for Active; 'I' for Inactive)
REMARK    1  A    between atoms: C_2  and  C_3 
ROOT
HETATM    1  S   UNL     1      65.698   6.238   3.845  1.00  0.00    -0.151 SA
HETATM    2  C   UNL     1      64.129   6.877   4.500  1.00  0.00     0.094 C 
HETATM    3  C   UNL     1      64.446   7.684   5.754  1.00  0.00     0.099 C 
HETATM    4  C   UNL     1      65.909   8.054   5.742  1.00  0.00     0.137 C 
HETATM    5  C   UNL     1      66.700   7.554   4.565  1.00  0.00     0.152 C 
HETATM    6  O   UNL     1      66.416   8.719   6.644  1.00  0.00    -0.297 OA
ENDROOT
BRANCH   2   7
HETATM    7  C   UNL     1      63.350   7.590   3.421  1.00  0.00    -0.003 A 
HETATM    8  S   UNL     1      62.687   9.161   3.628  1.00  0.00    -0.105 SA
HETATM    9  C   UNL     1      62.037   9.171   2.048  1.00  0.00     0.050 A 
HETATM   10  C   UNL     1      62.331   8.019   1.356  1.00  0.00     0.008 A 
HETATM   11  C   UNL     1      63.091   7.113   2.146  1.00  0.00     0.016 A 
ENDBRANCH   2   7
TORSDOF 1
ENDMDL
MODEL 6
REMARK VINA RESULT:      -3.3     12.706     13.971
REMARK  1 active torsions:
REMARK  status: ('A' for Active; 'I' for Inactive)
REMARK    1  A    between atoms: C_2  and  C_3 
ROOT
HETATM    1  S   UNL     1      54.999   0.990  14.062  1.00  0.00    -0.151 SA
HETATM    2  C   UNL     1      55.842   1.233  12.471  1.00  0.00     0.094 C 
HETATM    3  C   UNL     1      55.260   2.487  11.827  1.00  0.00     0.099 C 
HETATM    4  C   UNL     1      54.576   3.311  12.890  1.00  0.00     0.137 C 
HETATM    5  C   UNL     1      54.596   2.736  14.279  1.00  0.00     0.152 C 
HETATM    6  O   UNL     1      54.032   4.384  12.627  1.00  0.00    -0.297 OA
ENDROOT
BRANCH   2   7
HETATM    7  C   UNL     1      57.340   1.203  12.649  1.00  0.00    -0.003 A 
HETATM    8  S   UNL     1      58.397   0.397  11.562  1.00  0.00    -0.105 SA
HETATM    9  C   UNL     1      59.779   0.842  12.464  1.00  0.00     0.050 A 
HETATM   10  C   UNL     1      59.460   1.610  13.560  1.00  0.00     0.008 A 
HETATM   11  C   UNL     1      58.057   1.820  13.662  1.00  0.00     0.016 A 
ENDBRANCH   2   7
TORSDOF 1
ENDMDL
MODEL 7
REMARK VINA RESULT:      -3.3      2.319      2.650
REMARK  1 active torsions:
REMARK  status: ('A' for Active; 'I' for Inactive)
REMARK    1  A    between atoms: C_2  and  C_3 
ROOT
HETATM    1  S   UNL     1      63.529   6.061   4.266  1.00  0.00    -0.151 SA
HETATM    2  C   UNL     1      61.888   6.480   3.609  1.00  0.00     0.094 C 
HETATM    3  C   UNL     1      60.897   6.414   4.766  1.00  0.00     0.099 C 
HETATM    4  C   UNL     1      61.657   6.495   6.068  1.00  0.00     0.137 C 
HETATM    5  C   UNL     1      63.152   6.597   5.947  1.00  0.00     0.152 C 
HETATM    6  O   UNL     1      61.082   6.474   7.155  1.00  0.00    -0.297 OA
ENDROOT
BRANCH   2   7
HETATM    7  C   UNL     1      61.935   7.777   2.839  1.00  0.00    -0.003 A 
HETATM    8  S   UNL     1      61.729   9.313   3.577  1.00  0.00    -0.105 SA
HETATM    9  C   UNL     1      61.916  10.132   2.090  1.00  0.00     0.050 A 
HETATM   10  C   UNL     1      62.155   9.268   1.045  1.00  0.00     0.008 A 
HETATM   11  C   UNL     1      62.170   7.914   1.480  1.00  0.00     0.016 A 
ENDBRANCH   2   7
TORSDOF 1
ENDMDL
MODEL 8
REMARK VINA RESULT:      -3.3      2.650      4.556
REMARK  1 active torsions:
REMARK  status: ('A' for Active; 'I' for Inactive)
REMARK    1  A    between atoms: C_2  and  C_3 
ROOT
HETATM    1  S   UNL     1      63.105   9.849   5.143  1.00  0.00    -0.151 SA
HETATM    2  C   UNL     1      63.311   8.077   5.489  1.00  0.00     0.094 C 
HETATM    3  C   UNL     1      62.134   7.344   4.855  1.00  0.00     0.099 C 
HETATM    4  C   UNL     1      61.505   8.235   3.812  1.00  0.00     0.137 C 
HETATM    5  C   UNL     1      62.132   9.592   3.647  1.00  0.00     0.152 C 
HETATM    6  O   UNL     1      60.537   7.869   3.146  1.00  0.00    -0.297 OA
ENDROOT
BRANCH   2   7
HETATM    7  C   UNL     1      64.688   7.610   5.085  1.00  0.00    -0.003 A 
HETATM    8  S   UNL     1      66.104   7.982   5.983  1.00  0.00    -0.105 SA
HETATM    9  C   UNL     1      67.105   7.129   4.893  1.00  0.00     0.050 A 
HETATM   10  C   UNL     1      66.387   6.546   3.873  1.00  0.00     0.008 A 
HETATM   11  C   UNL     1      64.997   6.821   3.988  1.00  0.00     0.016 A 
ENDBRANCH   2   7
TORSDOF 1
ENDMDL
MODEL 9
REMARK VINA RESULT:      -3.3      6.965      7.400
REMARK  1 active torsions:
REMARK  status: ('A' for Active; 'I' for Inactive)
REMARK    1  A    between atoms: C_2  and  C_3 
ROOT
HETATM    1  S   UNL     1      56.349   4.813   7.007  1.00  0.00    -0.151 SA
HETATM    2  C   UNL     1      56.042   6.514   6.447  1.00  0.00     0.094 C 
HETATM    3  C   UNL     1      56.655   7.456   7.478  1.00  0.00     0.099 C 
HETATM    4  C   UNL     1      57.663   6.694   8.302  1.00  0.00     0.137 C 
HETATM    5  C   UNL     1      57.822   5.239   7.959  1.00  0.00     0.152 C 
HETATM    6  O   UNL     1      58.307   7.235   9.200  1.00  0.00    -0.297 OA
ENDROOT
BRANCH   2   7
HETATM    7  C   UNL     1      56.494   6.696   5.018  1.00  0.00    -0.003 A 
HETATM    8  S   UNL     1      55.635   6.058   3.676  1.00  0.00    -0.105 SA
HETATM    9  C   UNL     1      56.766   6.688   2.562  1.00  0.00     0.050 A 
HETATM   10  C   UNL     1      57.771   7.394   3.183  1.00  0.00     0.008 A 
HETATM   11  C   UNL     1      57.610   7.401   4.596  1.00  0.00     0.016 A 
ENDBRANCH   2   7
TORSDOF 1
ENDMDL
