MODEL 1
REMARK VINA RESULT:      -4.8      0.000      0.000
REMARK  6 active torsions:
REMARK  status: ('A' for Active; 'I' for Inactive)
REMARK    1  A    between atoms: C_1  and  C_6 
REMARK    2  A    between atoms: S_4  and  C_6 
REMARK    3  A    between atoms: S_4  and  C_8 
REMARK    4  A    between atoms: C_5  and  O_7 
REMARK    5  A    between atoms: O_7  and  C_9 
REMARK    6  A    between atoms: C_8  and  C_9 
ROOT
HETATM    1  O   UNL     1      62.715   8.664   5.266  1.00  0.00    -0.350 OA
ENDROOT
BRANCH   1   2
HETATM    2  C   UNL     1      62.386   9.425   4.173  1.00  0.00     0.068 A 
HETATM    3  C   UNL     1      62.110  10.796   4.188  1.00  0.00     0.037 A 
HETATM    4  C   UNL     1      61.871  11.482   2.994  1.00  0.00     0.003 A 
HETATM    5  C   UNL     1      61.876  10.798   1.780  1.00  0.00     0.000 A 
HETATM    6  C   UNL     1      62.100   9.424   1.763  1.00  0.00     0.003 A 
HETATM    7  C   UNL     1      62.352   8.740   2.957  1.00  0.00     0.037 A 
ENDBRANCH   1   2
BRANCH   1   8
HETATM    8  C   UNL     1      62.394   7.272   5.187  1.00  0.00     0.186 C 
BRANCH   8   9
HETATM    9  C   UNL     1      63.136   6.473   6.258  1.00  0.00     0.101 C 
BRANCH   9  10
HETATM   10  S   UNL     1      64.788   5.853   5.773  1.00  0.00    -0.156 SA
BRANCH  10  11
HETATM   11  C   UNL     1      65.882   6.947   6.733  1.00  0.00     0.186 C 
BRANCH  11  12
HETATM   12  C   UNL     1      66.402   8.141   5.966  1.00  0.00     0.182 C 
HETATM   13  O   UNL     1      67.325   8.203   5.169  1.00  0.00    -0.647 OA
HETATM   14  O   UNL     1      65.680   9.253   6.233  1.00  0.00    -0.647 OA
ENDBRANCH  11  12
ENDBRANCH  10  11
ENDBRANCH   9  10
ENDBRANCH   8   9
ENDBRANCH   1   8
TORSDOF 6
ENDMDL
MODEL 2
REMARK VINA RESULT:      -4.7      0.622      1.391
REMARK  6 active torsions:
REMARK  status: ('A' for Active; 'I' for Inactive)
REMARK    1  A    between atoms: C_1  and  C_6 
REMARK    2  A    between atoms: S_4  and  C_6 
REMARK    3  A    between atoms: S_4  and  C_8 
REMARK    4  A    between atoms: C_5  and  O_7 
REMARK    5  A    between atoms: O_7  and  C_9 
REMARK    6  A    between atoms: C_8  and  C_9 
ROOT
HETATM    1  O   UNL     1      63.293   7.668   4.258  1.00  0.00    -0.350 OA
ENDROOT
BRANCH   1   2
HETATM    2  C   UNL     1      62.823   8.721   3.516  1.00  0.00     0.068 A 
HETATM    3  C   UNL     1      62.572   8.701   2.141  1.00  0.00     0.037 A 
HETATM    4  C   UNL     1      62.010   9.814   1.508  1.00  0.00     0.003 A 
HETATM    5  C   UNL     1      61.722  10.964   2.239  1.00  0.00     0.000 A 
HETATM    6  C   UNL     1      62.017  11.009   3.599  1.00  0.00     0.003 A 
HETATM    7  C   UNL     1      62.567   9.891   4.234  1.00  0.00     0.037 A 
ENDBRANCH   1   2
BRANCH   1   8
HETATM    8  C   UNL     1      62.707   7.495   5.551  1.00  0.00     0.186 C 
BRANCH   8   9
HETATM    9  C   UNL     1      63.179   6.194   6.201  1.00  0.00     0.101 C 
BRANCH   9  10
HETATM   10  S   UNL     1      64.938   5.772   5.928  1.00  0.00    -0.156 SA
BRANCH  10  11
HETATM   11  C   UNL     1      65.775   7.040   6.932  1.00  0.00     0.186 C 
BRANCH  11  12
HETATM   12  C   UNL     1      66.386   8.168   6.133  1.00  0.00     0.182 C 
HETATM   13  O   UNL     1      67.446   8.198   5.528  1.00  0.00    -0.647 OA
HETATM   14  O   UNL     1      65.578   9.252   6.110  1.00  0.00    -0.647 OA
ENDBRANCH  11  12
ENDBRANCH  10  11
ENDBRANCH   9  10
ENDBRANCH   8   9
ENDBRANCH   1   8
TORSDOF 6
ENDMDL
MODEL 3
REMARK VINA RESULT:      -4.6      2.113      2.683
REMARK  6 active torsions:
REMARK  status: ('A' for Active; 'I' for Inactive)
REMARK    1  A    between atoms: C_1  and  C_6 
REMARK    2  A    between atoms: S_4  and  C_6 
REMARK    3  A    between atoms: S_4  and  C_8 
REMARK    4  A    between atoms: C_5  and  O_7 
REMARK    5  A    between atoms: O_7  and  C_9 
REMARK    6  A    between atoms: C_8  and  C_9 
ROOT
HETATM    1  O   UNL     1      63.024   8.532   5.262  1.00  0.00    -0.350 OA
ENDROOT
BRANCH   1   2
HETATM    2  C   UNL     1      62.676   9.166   4.096  1.00  0.00     0.068 A 
HETATM    3  C   UNL     1      62.658   8.583   2.826  1.00  0.00     0.037 A 
HETATM    4  C   UNL     1      62.201   9.308   1.721  1.00  0.00     0.003 A 
HETATM    5  C   UNL     1      61.787  10.629   1.873  1.00  0.00     0.000 A 
HETATM    6  C   UNL     1      61.850  11.232   3.127  1.00  0.00     0.003 A 
HETATM    7  C   UNL     1      62.295  10.502   4.234  1.00  0.00     0.037 A 
ENDBRANCH   1   2
BRANCH   1   8
HETATM    8  C   UNL     1      64.056   7.546   5.162  1.00  0.00     0.186 C 
BRANCH   8   9
HETATM    9  C   UNL     1      65.439   8.196   5.139  1.00  0.00     0.101 C 
BRANCH   9  10
HETATM   10  S   UNL     1      66.500   7.839   6.585  1.00  0.00    -0.156 SA
BRANCH  10  11
HETATM   11  C   UNL     1      65.607   6.451   7.356  1.00  0.00     0.186 C 
BRANCH  11  12
HETATM   12  C   UNL     1      66.337   5.799   8.507  1.00  0.00     0.182 C 
HETATM   13  O   UNL     1      66.355   4.625   8.842  1.00  0.00    -0.647 OA
HETATM   14  O   UNL     1      67.069   6.699   9.201  1.00  0.00    -0.647 OA
ENDBRANCH  11  12
ENDBRANCH  10  11
ENDBRANCH   9  10
ENDBRANCH   8   9
ENDBRANCH   1   8
TORSDOF 6
ENDMDL
MODEL 4
REMARK VINA RESULT:      -4.6      2.332      2.922
REMARK  6 active torsions:
REMARK  status: ('A' for Active; 'I' for Inactive)
REMARK    1  A    between atoms: C_1  and  C_6 
REMARK    2  A    between atoms: S_4  and  C_6 
REMARK    3  A    between atoms: S_4  and  C_8 
REMARK    4  A    between atoms: C_5  and  O_7 
REMARK    5  A    between atoms: O_7  and  C_9 
REMARK    6  A    between atoms: C_8  and  C_9 
ROOT
HETATM    1  O   UNL     1      64.916   9.271   5.829  1.00  0.00    -0.350 OA
ENDROOT
BRANCH   1   2
HETATM    2  C   UNL     1      63.842   9.477   5.001  1.00  0.00     0.068 A 
HETATM    3  C   UNL     1      62.987  10.582   5.036  1.00  0.00     0.037 A 
HETATM    4  C   UNL     1      61.975  10.724   4.082  1.00  0.00     0.003 A 
HETATM    5  C   UNL     1      61.792   9.748   3.105  1.00  0.00     0.000 A 
HETATM    6  C   UNL     1      62.608   8.619   3.095  1.00  0.00     0.003 A 
HETATM    7  C   UNL     1      63.628   8.484   4.042  1.00  0.00     0.037 A 
ENDBRANCH   1   2
BRANCH   1   8
HETATM    8  C   UNL     1      65.393   7.925   5.922  1.00  0.00     0.186 C 
BRANCH   8   9
HETATM    9  C   UNL     1      66.895   7.890   6.203  1.00  0.00     0.101 C 
BRANCH   9  10
HETATM   10  S   UNL     1      67.687   6.249   6.045  1.00  0.00    -0.156 SA
BRANCH  10  11
HETATM   11  C   UNL     1      67.910   5.785   7.792  1.00  0.00     0.186 C 
BRANCH  11  12
HETATM   12  C   UNL     1      66.623   5.506   8.534  1.00  0.00     0.182 C 
HETATM   13  O   UNL     1      65.856   4.563   8.420  1.00  0.00    -0.647 OA
HETATM   14  O   UNL     1      66.365   6.465   9.452  1.00  0.00    -0.647 OA
ENDBRANCH  11  12
ENDBRANCH  10  11
ENDBRANCH   9  10
ENDBRANCH   8   9
ENDBRANCH   1   8
TORSDOF 6
ENDMDL
MODEL 5
REMARK VINA RESULT:      -4.6      2.326      5.870
REMARK  6 active torsions:
REMARK  status: ('A' for Active; 'I' for Inactive)
REMARK    1  A    between atoms: C_1  and  C_6 
REMARK    2  A    between atoms: S_4  and  C_6 
REMARK    3  A    between atoms: S_4  and  C_8 
REMARK    4  A    between atoms: C_5  and  O_7 
REMARK    5  A    between atoms: O_7  and  C_9 
REMARK    6  A    between atoms: C_8  and  C_9 
ROOT
HETATM    1  O   UNL     1      65.222   8.918   5.899  1.00  0.00    -0.350 OA
ENDROOT
BRANCH   1   2
HETATM    2  C   UNL     1      65.983   7.792   6.080  1.00  0.00     0.068 A 
HETATM    3  C   UNL     1      65.949   6.957   7.201  1.00  0.00     0.037 A 
HETATM    4  C   UNL     1      66.712   5.786   7.234  1.00  0.00     0.003 A 
HETATM    5  C   UNL     1      67.536   5.456   6.160  1.00  0.00     0.000 A 
HETATM    6  C   UNL     1      67.613   6.309   5.062  1.00  0.00     0.003 A 
HETATM    7  C   UNL     1      66.841   7.474   5.024  1.00  0.00     0.037 A 
ENDBRANCH   1   2
BRANCH   1   8
HETATM    8  C   UNL     1      64.307   8.893   4.800  1.00  0.00     0.186 C 
BRANCH   8   9
HETATM    9  C   UNL     1      62.942   8.357   5.231  1.00  0.00     0.101 C 
BRANCH   9  10
HETATM   10  S   UNL     1      61.614   8.489   3.979  1.00  0.00    -0.156 SA
BRANCH  10  11
HETATM   11  C   UNL     1      62.321   9.712   2.830  1.00  0.00     0.186 C 
BRANCH  11  12
HETATM   12  C   UNL     1      61.948  11.145   3.134  1.00  0.00     0.182 C 
HETATM   13  O   UNL     1      61.727  11.671   4.213  1.00  0.00    -0.647 OA
HETATM   14  O   UNL     1      61.897  11.892   2.008  1.00  0.00    -0.647 OA
ENDBRANCH  11  12
ENDBRANCH  10  11
ENDBRANCH   9  10
ENDBRANCH   8   9
ENDBRANCH   1   8
TORSDOF 6
ENDMDL
MODEL 6
REMARK VINA RESULT:      -4.6      1.212      1.940
REMARK  6 active torsions:
REMARK  status: ('A' for Active; 'I' for Inactive)
REMARK    1  A    between atoms: C_1  and  C_6 
REMARK    2  A    between atoms: S_4  and  C_6 
REMARK    3  A    between atoms: S_4  and  C_8 
REMARK    4  A    between atoms: C_5  and  O_7 
REMARK    5  A    between atoms: O_7  and  C_9 
REMARK    6  A    between atoms: C_8  and  C_9 
ROOT
HETATM    1  O   UNL     1      62.787   7.334   3.332  1.00  0.00    -0.350 OA
ENDROOT
BRANCH   1   2
HETATM    2  C   UNL     1      62.513   8.662   3.124  1.00  0.00     0.068 A 
HETATM    3  C   UNL     1      62.191   9.245   1.896  1.00  0.00     0.037 A 
HETATM    4  C   UNL     1      61.846  10.598   1.823  1.00  0.00     0.003 A 
HETATM    5  C   UNL     1      61.850  11.384   2.973  1.00  0.00     0.000 A 
HETATM    6  C   UNL     1      62.219  10.821   4.192  1.00  0.00     0.003 A 
HETATM    7  C   UNL     1      62.552   9.465   4.266  1.00  0.00     0.037 A 
ENDBRANCH   1   2
BRANCH   1   8
HETATM    8  C   UNL     1      64.170   6.976   3.395  1.00  0.00     0.186 C 
BRANCH   8   9
HETATM    9  C   UNL     1      64.424   5.944   4.494  1.00  0.00     0.101 C 
BRANCH   9  10
HETATM   10  S   UNL     1      63.846   6.417   6.165  1.00  0.00    -0.156 SA
BRANCH  10  11
HETATM   11  C   UNL     1      65.423   6.758   7.010  1.00  0.00     0.186 C 
BRANCH  11  12
HETATM   12  C   UNL     1      66.232   7.878   6.397  1.00  0.00     0.182 C 
HETATM   13  O   UNL     1      65.940   9.056   6.263  1.00  0.00    -0.647 OA
HETATM   14  O   UNL     1      67.445   7.444   5.985  1.00  0.00    -0.647 OA
ENDBRANCH  11  12
ENDBRANCH  10  11
ENDBRANCH   9  10
ENDBRANCH   8   9
ENDBRANCH   1   8
TORSDOF 6
ENDMDL
MODEL 7
REMARK VINA RESULT:      -4.5      2.193      2.391
REMARK  6 active torsions:
REMARK  status: ('A' for Active; 'I' for Inactive)
REMARK    1  A    between atoms: C_1  and  C_6 
REMARK    2  A    between atoms: S_4  and  C_6 
REMARK    3  A    between atoms: S_4  and  C_8 
REMARK    4  A    between atoms: C_5  and  O_7 
REMARK    5  A    between atoms: O_7  and  C_9 
REMARK    6  A    between atoms: C_8  and  C_9 
ROOT
HETATM    1  O   UNL     1      63.071   8.714   5.015  1.00  0.00    -0.350 OA
ENDROOT
BRANCH   1   2
HETATM    2  C   UNL     1      62.595   9.498   3.994  1.00  0.00     0.068 A 
HETATM    3  C   UNL     1      62.183  10.828   4.113  1.00  0.00     0.037 A 
HETATM    4  C   UNL     1      61.798  11.553   2.981  1.00  0.00     0.003 A 
HETATM    5  C   UNL     1      61.793  10.944   1.728  1.00  0.00     0.000 A 
HETATM    6  C   UNL     1      62.153   9.605   1.610  1.00  0.00     0.003 A 
HETATM    7  C   UNL     1      62.551   8.884   2.741  1.00  0.00     0.037 A 
ENDBRANCH   1   2
BRANCH   1   8
HETATM    8  C   UNL     1      64.465   8.839   5.310  1.00  0.00     0.186 C 
BRANCH   8   9
HETATM    9  C   UNL     1      65.079   7.482   5.653  1.00  0.00     0.101 C 
BRANCH   9  10
HETATM   10  S   UNL     1      66.702   7.543   6.496  1.00  0.00    -0.156 SA
BRANCH  10  11
HETATM   11  C   UNL     1      66.978   5.784   6.878  1.00  0.00     0.186 C 
BRANCH  11  12
HETATM   12  C   UNL     1      66.647   5.393   8.299  1.00  0.00     0.182 C 
HETATM   13  O   UNL     1      66.716   4.297   8.833  1.00  0.00    -0.647 OA
HETATM   14  O   UNL     1      66.251   6.461   9.027  1.00  0.00    -0.647 OA
ENDBRANCH  11  12
ENDBRANCH  10  11
ENDBRANCH   9  10
ENDBRANCH   8   9
ENDBRANCH   1   8
TORSDOF 6
ENDMDL
MODEL 8
REMARK VINA RESULT:      -4.2      2.393      3.305
REMARK  6 active torsions:
REMARK  status: ('A' for Active; 'I' for Inactive)
REMARK    1  A    between atoms: C_1  and  C_6 
REMARK    2  A    between atoms: S_4  and  C_6 
REMARK    3  A    between atoms: S_4  and  C_8 
REMARK    4  A    between atoms: C_5  and  O_7 
REMARK    5  A    between atoms: O_7  and  C_9 
REMARK    6  A    between atoms: C_8  and  C_9 
ROOT
HETATM    1  O   UNL     1      62.855   7.471   2.661  1.00  0.00    -0.350 OA
ENDROOT
BRANCH   1   2
HETATM    2  C   UNL     1      62.551   8.809   2.698  1.00  0.00     0.068 A 
HETATM    3  C   UNL     1      62.182   9.591   1.600  1.00  0.00     0.037 A 
HETATM    4  C   UNL     1      61.811  10.927   1.776  1.00  0.00     0.003 A 
HETATM    5  C   UNL     1      61.834  11.499   3.046  1.00  0.00     0.000 A 
HETATM    6  C   UNL     1      62.250  10.740   4.137  1.00  0.00     0.003 A 
HETATM    7  C   UNL     1      62.609   9.400   3.962  1.00  0.00     0.037 A 
ENDBRANCH   1   2
BRANCH   1   8
HETATM    8  C   UNL     1      61.888   6.621   2.037  1.00  0.00     0.186 C 
BRANCH   8   9
HETATM    9  C   UNL     1      60.791   6.217   3.021  1.00  0.00     0.101 C 
BRANCH   9  10
HETATM   10  S   UNL     1      61.319   5.104   4.374  1.00  0.00    -0.156 SA
BRANCH  10  11
HETATM   11  C   UNL     1      61.190   6.204   5.819  1.00  0.00     0.186 C 
BRANCH  11  12
HETATM   12  C   UNL     1      62.503   6.801   6.271  1.00  0.00     0.182 C 
HETATM   13  O   UNL     1      62.705   7.719   7.051  1.00  0.00    -0.647 OA
HETATM   14  O   UNL     1      63.555   6.163   5.711  1.00  0.00    -0.647 OA
ENDBRANCH  11  12
ENDBRANCH  10  11
ENDBRANCH   9  10
ENDBRANCH   8   9
ENDBRANCH   1   8
TORSDOF 6
ENDMDL
MODEL 9
REMARK VINA RESULT:      -4.1      1.649      2.238
REMARK  6 active torsions:
REMARK  status: ('A' for Active; 'I' for Inactive)
REMARK    1  A    between atoms: C_1  and  C_6 
REMARK    2  A    between atoms: S_4  and  C_6 
REMARK    3  A    between atoms: S_4  and  C_8 
REMARK    4  A    between atoms: C_5  and  O_7 
REMARK    5  A    between atoms: O_7  and  C_9 
REMARK    6  A    between atoms: C_8  and  C_9 
ROOT
HETATM    1  O   UNL     1      61.092   7.206   3.977  1.00  0.00    -0.350 OA
ENDROOT
BRANCH   1   2
HETATM    2  C   UNL     1      61.356   8.399   3.354  1.00  0.00     0.068 A 
HETATM    3  C   UNL     1      61.641   9.608   3.995  1.00  0.00     0.037 A 
HETATM    4  C   UNL     1      61.980  10.741   3.250  1.00  0.00     0.003 A 
HETATM    5  C   UNL     1      62.007  10.683   1.859  1.00  0.00     0.000 A 
HETATM    6  C   UNL     1      61.675   9.496   1.212  1.00  0.00     0.003 A 
HETATM    7  C   UNL     1      61.348   8.359   1.958  1.00  0.00     0.037 A 
ENDBRANCH   1   2
BRANCH   1   8
HETATM    8  C   UNL     1      61.553   6.028   3.309  1.00  0.00     0.186 C 
BRANCH   8   9
HETATM    9  C   UNL     1      62.974   5.669   3.741  1.00  0.00     0.101 C 
BRANCH   9  10
HETATM   10  S   UNL     1      63.109   4.758   5.321  1.00  0.00    -0.156 SA
BRANCH  10  11
HETATM   11  C   UNL     1      64.242   5.830   6.261  1.00  0.00     0.186 C 
BRANCH  11  12
HETATM   12  C   UNL     1      63.763   7.253   6.428  1.00  0.00     0.182 C 
HETATM   13  O   UNL     1      62.694   7.662   6.853  1.00  0.00    -0.647 OA
HETATM   14  O   UNL     1      64.713   8.142   6.057  1.00  0.00    -0.647 OA
ENDBRANCH  11  12
ENDBRANCH  10  11
ENDBRANCH   9  10
ENDBRANCH   8   9
ENDBRANCH   1   8
TORSDOF 6
ENDMDL
