MODEL 1
REMARK VINA RESULT:      -5.1      0.000      0.000
REMARK  0 active torsions:
REMARK  status: ('A' for Active; 'I' for Inactive)
ROOT
HETATM    1  C   UNL     1      62.821   9.597   4.259  1.00  0.00     0.086 A 
HETATM    2  C   UNL     1      62.332  10.954   4.045  1.00  0.00     0.085 A 
HETATM    3  C   UNL     1      62.808   8.619   3.250  1.00  0.00     0.057 A 
HETATM    4  O   UNL     1      63.037  10.749   6.088  1.00  0.00    -0.156 OA
HETATM    5  N   UNL     1      63.247   9.502   5.524  1.00  0.00    -0.239 N 
ATOM      6  HN  UNL     1      63.644   8.680   5.979  1.00  0.00     0.197 HD
HETATM    7  N   UNL     1      62.478  11.638   5.185  1.00  0.00    -0.240 N 
ATOM      8  HN  UNL     1      62.228  12.613   5.355  1.00  0.00     0.197 HD
HETATM    9  C   UNL     1      61.813  11.381   2.809  1.00  0.00     0.035 A 
HETATM   10  C   UNL     1      62.283   9.068   2.025  1.00  0.00     0.036 A 
HETATM   11  C   UNL     1      61.807  10.390   1.808  1.00  0.00     0.026 A 
HETATM   12 CL   UNL     1      62.216   7.950   0.709  1.00  0.00    -0.084 Cl
ENDROOT
TORSDOF 0
ENDMDL
MODEL 2
REMARK VINA RESULT:      -4.9      1.410      2.353
REMARK  0 active torsions:
REMARK  status: ('A' for Active; 'I' for Inactive)
ROOT
HETATM    1  C   UNL     1      61.986  10.370   2.527  1.00  0.00     0.086 A 
HETATM    2  C   UNL     1      62.485   9.879   3.806  1.00  0.00     0.085 A 
HETATM    3  C   UNL     1      61.930   9.565   1.377  1.00  0.00     0.057 A 
HETATM    4  O   UNL     1      61.883  11.956   4.008  1.00  0.00    -0.156 OA
HETATM    5  N   UNL     1      61.624  11.649   2.683  1.00  0.00    -0.239 N 
ATOM      6  HN  UNL     1      61.237  12.270   1.972  1.00  0.00     0.197 HD
HETATM    7  N   UNL     1      62.411  10.875   4.696  1.00  0.00    -0.240 N 
ATOM      8  HN  UNL     1      62.685  10.845   5.678  1.00  0.00     0.197 HD
HETATM    9  C   UNL     1      62.947   8.562   3.978  1.00  0.00     0.035 A 
HETATM   10  C   UNL     1      62.398   8.254   1.572  1.00  0.00     0.036 A 
HETATM   11  C   UNL     1      62.885   7.768   2.816  1.00  0.00     0.026 A 
HETATM   12 CL   UNL     1      62.378   7.172   0.225  1.00  0.00    -0.084 Cl
ENDROOT
TORSDOF 0
ENDMDL
MODEL 3
REMARK VINA RESULT:      -4.9      1.793      2.225
REMARK  0 active torsions:
REMARK  status: ('A' for Active; 'I' for Inactive)
ROOT
HETATM    1  C   UNL     1      62.455   9.908   3.638  1.00  0.00     0.086 A 
HETATM    2  C   UNL     1      61.979  10.335   2.327  1.00  0.00     0.085 A 
HETATM    3  C   UNL     1      62.919   8.605   3.887  1.00  0.00     0.057 A 
HETATM    4  O   UNL     1      61.844  11.991   3.726  1.00  0.00    -0.156 OA
HETATM    5  N   UNL     1      62.359  10.947   4.476  1.00  0.00    -0.239 N 
ATOM      6  HN  UNL     1      62.613  10.966   5.463  1.00  0.00     0.197 HD
HETATM    7  N   UNL     1      61.610  11.618   2.412  1.00  0.00    -0.240 N 
ATOM      8  HN  UNL     1      61.234  12.201   1.664  1.00  0.00     0.197 HD
HETATM    9  C   UNL     1      61.951   9.471   1.218  1.00  0.00     0.035 A 
HETATM   10  C   UNL     1      62.880   7.759   2.765  1.00  0.00     0.036 A 
HETATM   11  C   UNL     1      62.418   8.169   1.485  1.00  0.00     0.026 A 
HETATM   12 CL   UNL     1      63.425   6.130   2.953  1.00  0.00    -0.084 Cl
ENDROOT
TORSDOF 0
ENDMDL
MODEL 4
REMARK VINA RESULT:      -4.5      1.885      2.711
REMARK  0 active torsions:
REMARK  status: ('A' for Active; 'I' for Inactive)
ROOT
HETATM    1  C   UNL     1      62.576   9.561   4.799  1.00  0.00     0.086 A 
HETATM    2  C   UNL     1      62.685   8.290   4.092  1.00  0.00     0.085 A 
HETATM    3  C   UNL     1      62.237  10.761   4.151  1.00  0.00     0.057 A 
HETATM    4  O   UNL     1      63.119   7.991   6.199  1.00  0.00    -0.156 OA
HETATM    5  N   UNL     1      62.849   9.345   6.091  1.00  0.00    -0.239 N 
ATOM      6  HN  UNL     1      62.857  10.036   6.842  1.00  0.00     0.197 HD
HETATM    7  N   UNL     1      63.020   7.345   4.978  1.00  0.00    -0.240 N 
ATOM      8  HN  UNL     1      63.171   6.353   4.792  1.00  0.00     0.197 HD
HETATM    9  C   UNL     1      62.456   8.176   2.709  1.00  0.00     0.035 A 
HETATM   10  C   UNL     1      62.015  10.622   2.769  1.00  0.00     0.036 A 
HETATM   11  C   UNL     1      62.118   9.387   2.075  1.00  0.00     0.026 A 
HETATM   12 CL   UNL     1      61.592  12.034   1.867  1.00  0.00    -0.084 Cl
ENDROOT
TORSDOF 0
ENDMDL
MODEL 5
REMARK VINA RESULT:      -4.4      0.985      1.023
REMARK  0 active torsions:
REMARK  status: ('A' for Active; 'I' for Inactive)
ROOT
HETATM    1  C   UNL     1      63.511   9.301   4.405  1.00  0.00     0.086 A 
HETATM    2  C   UNL     1      62.968  10.630   4.659  1.00  0.00     0.085 A 
HETATM    3  C   UNL     1      63.091   8.505   3.325  1.00  0.00     0.057 A 
HETATM    4  O   UNL     1      64.452  10.149   6.169  1.00  0.00    -0.156 OA
HETATM    5  N   UNL     1      64.420   9.033   5.350  1.00  0.00    -0.239 N 
ATOM      6  HN  UNL     1      64.975   8.183   5.446  1.00  0.00     0.197 HD
HETATM    7  N   UNL     1      63.564  11.126   5.749  1.00  0.00    -0.240 N 
ATOM      8  HN  UNL     1      63.399  12.035   6.182  1.00  0.00     0.197 HD
HETATM    9  C   UNL     1      61.983  11.211   3.839  1.00  0.00     0.035 A 
HETATM   10  C   UNL     1      62.106   9.105   2.521  1.00  0.00     0.036 A 
HETATM   11  C   UNL     1      61.573  10.401   2.763  1.00  0.00     0.026 A 
HETATM   12 CL   UNL     1      61.511   8.218   1.163  1.00  0.00    -0.084 Cl
ENDROOT
TORSDOF 0
ENDMDL
MODEL 6
REMARK VINA RESULT:      -4.4      6.004      6.952
REMARK  0 active torsions:
REMARK  status: ('A' for Active; 'I' for Inactive)
ROOT
HETATM    1  C   UNL     1      66.661   7.254   7.313  1.00  0.00     0.086 A 
HETATM    2  C   UNL     1      65.393   6.928   6.672  1.00  0.00     0.085 A 
HETATM    3  C   UNL     1      67.411   6.307   8.031  1.00  0.00     0.057 A 
HETATM    4  O   UNL     1      65.868   9.019   6.327  1.00  0.00    -0.156 OA
HETATM    5  N   UNL     1      66.926   8.545   7.084  1.00  0.00    -0.239 N 
ATOM      6  HN  UNL     1      67.740   9.072   7.401  1.00  0.00     0.197 HD
HETATM    7  N   UNL     1      64.929   8.032   6.075  1.00  0.00    -0.240 N 
ATOM      8  HN  UNL     1      64.063   8.127   5.543  1.00  0.00     0.197 HD
HETATM    9  C   UNL     1      64.830   5.640   6.727  1.00  0.00     0.035 A 
HETATM   10  C   UNL     1      66.828   5.028   8.073  1.00  0.00     0.036 A 
HETATM   11  C   UNL     1      65.593   4.704   7.450  1.00  0.00     0.026 A 
HETATM   12 CL   UNL     1      67.662   3.781   8.931  1.00  0.00    -0.084 Cl
ENDROOT
TORSDOF 0
ENDMDL
MODEL 7
REMARK VINA RESULT:      -4.1      3.414      4.200
REMARK  0 active torsions:
REMARK  status: ('A' for Active; 'I' for Inactive)
ROOT
HETATM    1  C   UNL     1      61.955   9.812   2.771  1.00  0.00     0.086 A 
HETATM    2  C   UNL     1      62.685   8.549   2.768  1.00  0.00     0.085 A 
HETATM    3  C   UNL     1      62.041  10.733   3.829  1.00  0.00     0.057 A 
HETATM    4  O   UNL     1      61.519   8.721   0.944  1.00  0.00    -0.156 OA
HETATM    5  N   UNL     1      61.248   9.889   1.638  1.00  0.00    -0.239 N 
ATOM      6  HN  UNL     1      60.636  10.650   1.345  1.00  0.00     0.197 HD
HETATM    7  N   UNL     1      62.397   7.901   1.634  1.00  0.00    -0.240 N 
ATOM      8  HN  UNL     1      62.750   6.991   1.339  1.00  0.00     0.197 HD
HETATM    9  C   UNL     1      63.527   8.164   3.827  1.00  0.00     0.035 A 
HETATM   10  C   UNL     1      62.887  10.326   4.876  1.00  0.00     0.036 A 
HETATM   11  C   UNL     1      63.601   9.097   4.879  1.00  0.00     0.026 A 
HETATM   12 CL   UNL     1      63.068  11.379   6.233  1.00  0.00    -0.084 Cl
ENDROOT
TORSDOF 0
ENDMDL
MODEL 8
REMARK VINA RESULT:      -4.0      1.963      2.528
REMARK  0 active torsions:
REMARK  status: ('A' for Active; 'I' for Inactive)
ROOT
HETATM    1  C   UNL     1      63.738   9.302   4.940  1.00  0.00     0.086 A 
HETATM    2  C   UNL     1      62.704   9.576   3.949  1.00  0.00     0.085 A 
HETATM    3  C   UNL     1      64.541   8.149   4.897  1.00  0.00     0.057 A 
HETATM    4  O   UNL     1      62.762  11.185   5.406  1.00  0.00    -0.156 OA
HETATM    5  N   UNL     1      63.750  10.308   5.822  1.00  0.00    -0.239 N 
ATOM      6  HN  UNL     1      64.360  10.408   6.633  1.00  0.00     0.197 HD
HETATM    7  N   UNL     1      62.122  10.739   4.261  1.00  0.00    -0.240 N 
ATOM      8  HN  UNL     1      61.363  11.202   3.761  1.00  0.00     0.197 HD
HETATM    9  C   UNL     1      62.437   8.704   2.878  1.00  0.00     0.035 A 
HETATM   10  C   UNL     1      64.254   7.292   3.820  1.00  0.00     0.036 A 
HETATM   11  C   UNL     1      63.249   7.554   2.850  1.00  0.00     0.026 A 
HETATM   12 CL   UNL     1      65.178   5.839   3.666  1.00  0.00    -0.084 Cl
ENDROOT
TORSDOF 0
ENDMDL
MODEL 9
REMARK VINA RESULT:      -4.0      3.167      3.565
REMARK  0 active torsions:
REMARK  status: ('A' for Active; 'I' for Inactive)
ROOT
HETATM    1  C   UNL     1      62.679   8.697   2.717  1.00  0.00     0.086 A 
HETATM    2  C   UNL     1      62.091   9.966   3.128  1.00  0.00     0.085 A 
HETATM    3  C   UNL     1      63.536   7.955   3.549  1.00  0.00     0.057 A 
HETATM    4  O   UNL     1      61.430   9.474   1.119  1.00  0.00    -0.156 OA
HETATM    5  N   UNL     1      62.254   8.420   1.479  1.00  0.00    -0.239 N 
ATOM      6  HN  UNL     1      62.489   7.603   0.916  1.00  0.00     0.197 HD
HETATM    7  N   UNL     1      61.330  10.420   2.126  1.00  0.00    -0.240 N 
ATOM      8  HN  UNL     1      60.788  11.284   2.107  1.00  0.00     0.197 HD
HETATM    9  C   UNL     1      62.341  10.540   4.388  1.00  0.00     0.035 A 
HETATM   10  C   UNL     1      63.772   8.549   4.801  1.00  0.00     0.036 A 
HETATM   11  C   UNL     1      63.202   9.785   5.208  1.00  0.00     0.026 A 
HETATM   12 CL   UNL     1      64.814   7.726   5.908  1.00  0.00    -0.084 Cl
ENDROOT
TORSDOF 0
ENDMDL
