MODEL 1
REMARK VINA RESULT:      -5.4      0.000      0.000
REMARK  0 active torsions:
REMARK  status: ('A' for Active; 'I' for Inactive)
ROOT
HETATM    1  O   UNL     1      65.685   5.783   6.809  1.00  0.00    -0.336 OA
HETATM    2  C   UNL     1      64.977   6.805   6.246  1.00  0.00     0.080 A 
HETATM    3  C   UNL     1      65.555   7.824   5.486  1.00  0.00    -0.002 A 
HETATM    4  C   UNL     1      66.990   7.836   5.258  1.00  0.00     0.013 A 
HETATM    5  N   UNL     1      61.875  10.657   4.112  1.00  0.00    -0.191 NA
HETATM    6  C   UNL     1      67.124   5.783   6.692  1.00  0.00     0.078 A 
HETATM    7  C   UNL     1      67.717   6.872   5.827  1.00  0.00     0.011 A 
HETATM    8  C   UNL     1      62.535   9.826   4.580  1.00  0.00     0.099 C 
HETATM    9  C   UNL     1      64.744   8.824   4.939  1.00  0.00     0.037 A 
HETATM   10  C   UNL     1      63.597   6.782   6.457  1.00  0.00     0.039 A 
HETATM   11  C   UNL     1      63.360   8.801   5.149  1.00  0.00     0.045 A 
HETATM   12  C   UNL     1      62.787   7.779   5.911  1.00  0.00     0.025 A 
HETATM   13  C   UNL     1      67.678   5.927   8.114  1.00  0.00     0.051 C 
HETATM   14  C   UNL     1      67.504   4.419   6.105  1.00  0.00     0.051 C 
ENDROOT
TORSDOF 0
ENDMDL
MODEL 2
REMARK VINA RESULT:      -5.1      2.104      2.820
REMARK  0 active torsions:
REMARK  status: ('A' for Active; 'I' for Inactive)
ROOT
HETATM    1  O   UNL     1      65.067   8.386   5.959  1.00  0.00    -0.336 OA
HETATM    2  C   UNL     1      64.207   8.403   4.900  1.00  0.00     0.080 A 
HETATM    3  C   UNL     1      64.146   7.399   3.931  1.00  0.00    -0.002 A 
HETATM    4  C   UNL     1      65.034   6.251   4.017  1.00  0.00     0.013 A 
HETATM    5  N   UNL     1      60.641   8.760   0.878  1.00  0.00    -0.191 NA
HETATM    6  C   UNL     1      66.033   7.316   6.056  1.00  0.00     0.078 A 
HETATM    7  C   UNL     1      65.914   6.222   5.020  1.00  0.00     0.011 A 
HETATM    8  C   UNL     1      61.409   8.695   1.745  1.00  0.00     0.099 C 
HETATM    9  C   UNL     1      63.221   7.501   2.887  1.00  0.00     0.037 A 
HETATM   10  C   UNL     1      63.348   9.501   4.828  1.00  0.00     0.039 A 
HETATM   11  C   UNL     1      62.358   8.602   2.815  1.00  0.00     0.045 A 
HETATM   12  C   UNL     1      62.424   9.603   3.787  1.00  0.00     0.025 A 
HETATM   13  C   UNL     1      67.417   7.964   5.930  1.00  0.00     0.051 C 
HETATM   14  C   UNL     1      65.853   6.704   7.449  1.00  0.00     0.051 C 
ENDROOT
TORSDOF 0
ENDMDL
MODEL 3
REMARK VINA RESULT:      -5.0      3.188      5.714
REMARK  0 active torsions:
REMARK  status: ('A' for Active; 'I' for Inactive)
ROOT
HETATM    1  O   UNL     1      62.700   7.454   2.216  1.00  0.00    -0.336 OA
HETATM    2  C   UNL     1      63.539   7.549   3.288  1.00  0.00     0.080 A 
HETATM    3  C   UNL     1      63.536   8.618   4.186  1.00  0.00    -0.002 A 
HETATM    4  C   UNL     1      62.602   9.716   4.006  1.00  0.00     0.013 A 
HETATM    5  N   UNL     1      66.955   7.571   7.454  1.00  0.00    -0.191 NA
HETATM    6  C   UNL     1      61.805   8.552   1.932  1.00  0.00     0.078 A 
HETATM    7  C   UNL     1      61.792   9.674   2.945  1.00  0.00     0.011 A 
HETATM    8  C   UNL     1      66.227   7.559   6.551  1.00  0.00     0.099 C 
HETATM    9  C   UNL     1      64.430   8.620   5.263  1.00  0.00     0.037 A 
HETATM   10  C   UNL     1      64.427   6.486   3.464  1.00  0.00     0.039 A 
HETATM   11  C   UNL     1      65.320   7.554   5.441  1.00  0.00     0.045 A 
HETATM   12  C   UNL     1      65.319   6.486   4.539  1.00  0.00     0.025 A 
HETATM   13  C   UNL     1      62.230   9.121   0.574  1.00  0.00     0.051 C 
HETATM   14  C   UNL     1      60.401   7.945   1.843  1.00  0.00     0.051 C 
ENDROOT
TORSDOF 0
ENDMDL
MODEL 4
REMARK VINA RESULT:      -4.8      3.506      5.704
REMARK  0 active torsions:
REMARK  status: ('A' for Active; 'I' for Inactive)
ROOT
HETATM    1  O   UNL     1      62.776   8.887   3.280  1.00  0.00    -0.336 OA
HETATM    2  C   UNL     1      63.797   8.208   3.879  1.00  0.00     0.080 A 
HETATM    3  C   UNL     1      64.280   6.976   3.432  1.00  0.00    -0.002 A 
HETATM    4  C   UNL     1      63.688   6.344   2.265  1.00  0.00     0.013 A 
HETATM    5  N   UNL     1      67.892   5.831   6.448  1.00  0.00    -0.191 NA
HETATM    6  C   UNL     1      62.089   8.274   2.168  1.00  0.00     0.078 A 
HETATM    7  C   UNL     1      62.661   6.963   1.678  1.00  0.00     0.011 A 
HETATM    8  C   UNL     1      67.007   6.348   5.905  1.00  0.00     0.099 C 
HETATM    9  C   UNL     1      65.340   6.362   4.107  1.00  0.00     0.037 A 
HETATM   10  C   UNL     1      64.371   8.825   4.992  1.00  0.00     0.039 A 
HETATM   11  C   UNL     1      65.917   6.981   5.223  1.00  0.00     0.045 A 
HETATM   12  C   UNL     1      65.430   8.213   5.666  1.00  0.00     0.025 A 
HETATM   13  C   UNL     1      60.644   8.041   2.622  1.00  0.00     0.051 C 
HETATM   14  C   UNL     1      62.133   9.294   1.025  1.00  0.00     0.051 C 
ENDROOT
TORSDOF 0
ENDMDL
MODEL 5
REMARK VINA RESULT:      -4.7      4.162      6.591
REMARK  0 active torsions:
REMARK  status: ('A' for Active; 'I' for Inactive)
ROOT
HETATM    1  O   UNL     1      59.928   6.600   2.524  1.00  0.00    -0.336 OA
HETATM    2  C   UNL     1      61.025   7.172   3.101  1.00  0.00     0.080 A 
HETATM    3  C   UNL     1      61.753   8.214   2.523  1.00  0.00    -0.002 A 
HETATM    4  C   UNL     1      61.354   8.750   1.232  1.00  0.00     0.013 A 
HETATM    5  N   UNL     1      65.276   9.240   5.685  1.00  0.00    -0.191 NA
HETATM    6  C   UNL     1      59.530   7.029   1.204  1.00  0.00     0.078 A 
HETATM    7  C   UNL     1      60.308   8.188   0.623  1.00  0.00     0.011 A 
HETATM    8  C   UNL     1      64.362   8.784   5.134  1.00  0.00     0.099 C 
HETATM    9  C   UNL     1      62.859   8.742   3.197  1.00  0.00     0.037 A 
HETATM   10  C   UNL     1      61.397   6.661   4.346  1.00  0.00     0.039 A 
HETATM   11  C   UNL     1      63.232   8.232   4.446  1.00  0.00     0.045 A 
HETATM   12  C   UNL     1      62.500   7.189   5.020  1.00  0.00     0.025 A 
HETATM   13  C   UNL     1      59.694   5.816   0.282  1.00  0.00     0.051 C 
HETATM   14  C   UNL     1      58.054   7.425   1.312  1.00  0.00     0.051 C 
ENDROOT
TORSDOF 0
ENDMDL
MODEL 6
REMARK VINA RESULT:      -4.6      3.872      6.453
REMARK  0 active torsions:
REMARK  status: ('A' for Active; 'I' for Inactive)
ROOT
HETATM    1  O   UNL     1      59.585   7.702   3.086  1.00  0.00    -0.336 OA
HETATM    2  C   UNL     1      60.803   7.887   3.673  1.00  0.00     0.080 A 
HETATM    3  C   UNL     1      61.281   7.116   4.735  1.00  0.00    -0.002 A 
HETATM    4  C   UNL     1      60.464   6.045   5.279  1.00  0.00     0.013 A 
HETATM    5  N   UNL     1      65.695   8.854   5.711  1.00  0.00    -0.191 NA
HETATM    6  C   UNL     1      58.691   6.709   3.635  1.00  0.00     0.078 A 
HETATM    7  C   UNL     1      59.251   5.861   4.754  1.00  0.00     0.011 A 
HETATM    8  C   UNL     1      64.641   8.657   5.268  1.00  0.00     0.099 C 
HETATM    9  C   UNL     1      62.550   7.377   5.262  1.00  0.00     0.037 A 
HETATM   10  C   UNL     1      61.589   8.911   3.138  1.00  0.00     0.039 A 
HETATM   11  C   UNL     1      63.339   8.402   4.727  1.00  0.00     0.045 A 
HETATM   12  C   UNL     1      62.856   9.170   3.664  1.00  0.00     0.025 A 
HETATM   13  C   UNL     1      57.465   7.467   4.159  1.00  0.00     0.051 C 
HETATM   14  C   UNL     1      58.298   5.797   2.468  1.00  0.00     0.051 C 
ENDROOT
TORSDOF 0
ENDMDL
MODEL 7
REMARK VINA RESULT:      -4.6      2.283      2.741
REMARK  0 active torsions:
REMARK  status: ('A' for Active; 'I' for Inactive)
ROOT
HETATM    1  O   UNL     1      65.347   5.345   2.994  1.00  0.00    -0.336 OA
HETATM    2  C   UNL     1      64.936   6.489   3.615  1.00  0.00     0.080 A 
HETATM    3  C   UNL     1      65.624   7.093   4.669  1.00  0.00    -0.002 A 
HETATM    4  C   UNL     1      66.854   6.500   5.167  1.00  0.00     0.013 A 
HETATM    5  N   UNL     1      63.060  11.045   5.795  1.00  0.00    -0.191 NA
HETATM    6  C   UNL     1      66.514   4.660   3.497  1.00  0.00     0.078 A 
HETATM    7  C   UNL     1      67.264   5.359   4.608  1.00  0.00     0.011 A 
HETATM    8  C   UNL     1      63.453  10.061   5.322  1.00  0.00     0.099 C 
HETATM    9  C   UNL     1      65.129   8.272   5.234  1.00  0.00     0.037 A 
HETATM   10  C   UNL     1      63.760   7.062   3.124  1.00  0.00     0.039 A 
HETATM   11  C   UNL     1      63.950   8.848   4.742  1.00  0.00     0.045 A 
HETATM   12  C   UNL     1      63.265   8.240   3.687  1.00  0.00     0.025 A 
HETATM   13  C   UNL     1      66.036   3.297   4.008  1.00  0.00     0.051 C 
HETATM   14  C   UNL     1      67.453   4.483   2.298  1.00  0.00     0.051 C 
ENDROOT
TORSDOF 0
ENDMDL
MODEL 8
REMARK VINA RESULT:      -4.5      3.845      6.087
REMARK  0 active torsions:
REMARK  status: ('A' for Active; 'I' for Inactive)
ROOT
HETATM    1  O   UNL     1      67.391   7.126   6.609  1.00  0.00    -0.336 OA
HETATM    2  C   UNL     1      67.499   5.939   7.275  1.00  0.00     0.080 A 
HETATM    3  C   UNL     1      67.279   4.693   6.683  1.00  0.00    -0.002 A 
HETATM    4  C   UNL     1      66.911   4.609   5.280  1.00  0.00     0.013 A 
HETATM    5  N   UNL     1      68.074   1.442  10.185  1.00  0.00    -0.191 NA
HETATM    6  C   UNL     1      66.946   7.117   5.236  1.00  0.00     0.078 A 
HETATM    7  C   UNL     1      66.759   5.754   4.609  1.00  0.00     0.011 A 
HETATM    8  C   UNL     1      67.948   2.417   9.568  1.00  0.00     0.099 C 
HETATM    9  C   UNL     1      67.425   3.530   7.447  1.00  0.00     0.037 A 
HETATM   10  C   UNL     1      67.865   6.024   8.620  1.00  0.00     0.039 A 
HETATM   11  C   UNL     1      67.794   3.614   8.795  1.00  0.00     0.045 A 
HETATM   12  C   UNL     1      68.012   4.863   9.382  1.00  0.00     0.025 A 
HETATM   13  C   UNL     1      65.605   7.859   5.206  1.00  0.00     0.051 C 
HETATM   14  C   UNL     1      68.004   7.889   4.440  1.00  0.00     0.051 C 
ENDROOT
TORSDOF 0
ENDMDL
MODEL 9
REMARK VINA RESULT:      -4.4      3.071      5.088
REMARK  0 active torsions:
REMARK  status: ('A' for Active; 'I' for Inactive)
ROOT
HETATM    1  O   UNL     1      63.166   6.209   4.676  1.00  0.00    -0.336 OA
HETATM    2  C   UNL     1      64.179   6.226   5.591  1.00  0.00     0.080 A 
HETATM    3  C   UNL     1      64.954   7.353   5.872  1.00  0.00    -0.002 A 
HETATM    4  C   UNL     1      64.702   8.601   5.172  1.00  0.00     0.013 A 
HETATM    5  N   UNL     1      68.064   5.958   9.313  1.00  0.00    -0.191 NA
HETATM    6  C   UNL     1      62.920   7.392   3.886  1.00  0.00     0.078 A 
HETATM    7  C   UNL     1      63.744   8.609   4.243  1.00  0.00     0.011 A 
HETATM    8  C   UNL     1      67.229   6.004   8.509  1.00  0.00     0.099 C 
HETATM    9  C   UNL     1      65.965   7.275   6.836  1.00  0.00     0.037 A 
HETATM   10  C   UNL     1      64.410   5.028   6.270  1.00  0.00     0.039 A 
HETATM   11  C   UNL     1      66.196   6.074   7.518  1.00  0.00     0.045 A 
HETATM   12  C   UNL     1      65.418   4.949   7.233  1.00  0.00     0.025 A 
HETATM   13  C   UNL     1      63.210   7.013   2.429  1.00  0.00     0.051 C 
HETATM   14  C   UNL     1      61.436   7.725   4.068  1.00  0.00     0.051 C 
ENDROOT
TORSDOF 0
ENDMDL
