MODEL 1
REMARK VINA RESULT:      -3.7      0.000      0.000
REMARK  2 active torsions:
REMARK  status: ('A' for Active; 'I' for Inactive)
REMARK    1  A    between atoms: C_2  and  C_8 
REMARK    2  A    between atoms: C_8  and  O_10 
ROOT
HETATM    1  N   UNL     1      62.553   8.591   3.363  1.00  0.00    -0.065 N 
HETATM    2  C   UNL     1      62.407   9.630   2.310  1.00  0.00     0.237 C 
HETATM    3  N   UNL     1      60.204   8.637   1.611  1.00  0.00    -0.071 N 
HETATM    4  C   UNL     1      61.558   9.022   1.152  1.00  0.00     0.269 C 
HETATM    5  C   UNL     1      61.244   8.152   3.865  1.00  0.00     0.262 C 
HETATM    6  C   UNL     1      60.324   7.663   2.717  1.00  0.00     0.262 C 
HETATM    7  C   UNL     1      63.491   8.917   4.423  1.00  0.00     0.270 C 
HETATM    8  C   UNL     1      59.418   8.083   0.514  1.00  0.00     0.269 C 
HETATM    9  H   UNL     1      62.990   7.794   2.901  1.00  0.00     0.280 HD
HETATM   10  H   UNL     1      59.718   9.469   1.947  1.00  0.00     0.279 HD
ENDROOT
BRANCH   2  11
HETATM   11  C   UNL     1      61.777  10.989   2.718  1.00  0.00     0.199 C 
BRANCH  11  12
HETATM   12  O   UNL     1      62.088  12.044   1.812  1.00  0.00    -0.399 OA
HETATM   13  H   UNL     1      63.028  12.271   1.889  1.00  0.00     0.209 HD
ENDBRANCH  11  12
ENDBRANCH   2  11
TORSDOF 2
ENDMDL
MODEL 2
REMARK VINA RESULT:      -3.6      3.116      4.279
REMARK  2 active torsions:
REMARK  status: ('A' for Active; 'I' for Inactive)
REMARK    1  A    between atoms: C_2  and  C_8 
REMARK    2  A    between atoms: C_8  and  O_10 
ROOT
HETATM    1  N   UNL     1      64.629   7.257   3.977  1.00  0.00    -0.065 N 
HETATM    2  C   UNL     1      64.371   7.862   5.311  1.00  0.00     0.237 C 
HETATM    3  N   UNL     1      62.583   9.327   4.321  1.00  0.00    -0.071 N 
HETATM    4  C   UNL     1      63.851   9.314   5.085  1.00  0.00     0.269 C 
HETATM    5  C   UNL     1      63.412   7.242   3.155  1.00  0.00     0.262 C 
HETATM    6  C   UNL     1      62.793   8.657   3.019  1.00  0.00     0.262 C 
HETATM    7  C   UNL     1      65.316   5.979   4.005  1.00  0.00     0.270 C 
HETATM    8  C   UNL     1      62.101  10.691   4.130  1.00  0.00     0.269 C 
HETATM    9  H   UNL     1      65.302   7.875   3.524  1.00  0.00     0.280 HD
HETATM   10  H   UNL     1      61.870   8.822   4.848  1.00  0.00     0.279 HD
ENDROOT
BRANCH   2  11
HETATM   11  C   UNL     1      63.384   7.128   6.258  1.00  0.00     0.199 C 
BRANCH  11  12
HETATM   12  O   UNL     1      62.607   8.019   7.055  1.00  0.00    -0.399 OA
HETATM   13  H   UNL     1      61.667   7.913   6.837  1.00  0.00     0.209 HD
ENDBRANCH  11  12
ENDBRANCH   2  11
TORSDOF 2
ENDMDL
MODEL 3
REMARK VINA RESULT:      -3.6      4.535      5.738
REMARK  2 active torsions:
REMARK  status: ('A' for Active; 'I' for Inactive)
REMARK    1  A    between atoms: C_2  and  C_8 
REMARK    2  A    between atoms: C_8  and  O_10 
ROOT
HETATM    1  N   UNL     1      65.185   5.838   5.708  1.00  0.00    -0.065 N 
HETATM    2  C   UNL     1      66.074   7.028   5.646  1.00  0.00     0.237 C 
HETATM    3  N   UNL     1      64.076   8.549   5.777  1.00  0.00    -0.071 N 
HETATM    4  C   UNL     1      65.273   8.189   4.984  1.00  0.00     0.269 C 
HETATM    5  C   UNL     1      63.966   6.122   6.477  1.00  0.00     0.262 C 
HETATM    6  C   UNL     1      63.212   7.357   5.922  1.00  0.00     0.262 C 
HETATM    7  C   UNL     1      65.838   4.603   6.106  1.00  0.00     0.270 C 
HETATM    8  C   UNL     1      63.344   9.647   5.153  1.00  0.00     0.269 C 
HETATM    9  H   UNL     1      64.907   5.655   4.744  1.00  0.00     0.280 HD
HETATM   10  H   UNL     1      64.371   8.865   6.701  1.00  0.00     0.279 HD
ENDROOT
BRANCH   2  11
HETATM   11  C   UNL     1      66.680   7.547   6.978  1.00  0.00     0.199 C 
BRANCH  11  12
HETATM   12  O   UNL     1      66.824   8.964   7.012  1.00  0.00    -0.399 OA
HETATM   13  H   UNL     1      66.301   9.360   6.297  1.00  0.00     0.209 HD
ENDBRANCH  11  12
ENDBRANCH   2  11
TORSDOF 2
ENDMDL
MODEL 4
REMARK VINA RESULT:      -3.5      1.792      2.026
REMARK  2 active torsions:
REMARK  status: ('A' for Active; 'I' for Inactive)
REMARK    1  A    between atoms: C_2  and  C_8 
REMARK    2  A    between atoms: C_8  and  O_10 
ROOT
HETATM    1  N   UNL     1      63.515   8.057   4.446  1.00  0.00    -0.065 N 
HETATM    2  C   UNL     1      62.870   9.089   3.591  1.00  0.00     0.237 C 
HETATM    3  N   UNL     1      60.666   7.891   3.776  1.00  0.00    -0.071 N 
HETATM    4  C   UNL     1      61.685   8.413   2.837  1.00  0.00     0.269 C 
HETATM    5  C   UNL     1      62.559   7.484   5.403  1.00  0.00     0.262 C 
HETATM    6  C   UNL     1      61.303   6.920   4.693  1.00  0.00     0.262 C 
HETATM    7  C   UNL     1      64.766   8.462   5.060  1.00  0.00     0.270 C 
HETATM    8  C   UNL     1      59.557   7.275   3.056  1.00  0.00     0.269 C 
HETATM    9  H   UNL     1      63.797   7.313   3.808  1.00  0.00     0.280 HD
HETATM   10  H   UNL     1      60.285   8.666   4.319  1.00  0.00     0.279 HD
ENDROOT
BRANCH   2  11
HETATM   11  C   UNL     1      62.342  10.374   4.285  1.00  0.00     0.199 C 
BRANCH  11  12
HETATM   12  O   UNL     1      61.202  10.931   3.635  1.00  0.00    -0.399 OA
HETATM   13  H   UNL     1      61.323  10.886   2.674  1.00  0.00     0.209 HD
ENDBRANCH  11  12
ENDBRANCH   2  11
TORSDOF 2
ENDMDL
MODEL 5
REMARK VINA RESULT:      -3.5      5.007      7.092
REMARK  2 active torsions:
REMARK  status: ('A' for Active; 'I' for Inactive)
REMARK    1  A    between atoms: C_2  and  C_8 
REMARK    2  A    between atoms: C_8  and  O_10 
ROOT
HETATM    1  N   UNL     1      65.158   8.120   5.844  1.00  0.00    -0.065 N 
HETATM    2  C   UNL     1      66.387   7.775   5.083  1.00  0.00     0.237 C 
HETATM    3  N   UNL     1      67.032   6.105   6.850  1.00  0.00    -0.071 N 
HETATM    4  C   UNL     1      67.467   7.308   6.106  1.00  0.00     0.269 C 
HETATM    5  C   UNL     1      64.668   6.972   6.617  1.00  0.00     0.262 C 
HETATM    6  C   UNL     1      65.763   6.399   7.552  1.00  0.00     0.262 C 
HETATM    7  C   UNL     1      64.118   8.773   5.068  1.00  0.00     0.270 C 
HETATM    8  C   UNL     1      68.058   5.672   7.793  1.00  0.00     0.269 C 
HETATM    9  H   UNL     1      65.442   8.841   6.507  1.00  0.00     0.280 HD
HETATM   10  H   UNL     1      66.882   5.341   6.190  1.00  0.00     0.279 HD
ENDROOT
BRANCH   2  11
HETATM   11  C   UNL     1      66.270   6.699   3.970  1.00  0.00     0.199 C 
BRANCH  11  12
HETATM   12  O   UNL     1      67.453   5.919   3.818  1.00  0.00    -0.399 OA
HETATM   13  H   UNL     1      67.654   5.469   4.654  1.00  0.00     0.209 HD
ENDBRANCH  11  12
ENDBRANCH   2  11
TORSDOF 2
ENDMDL
MODEL 6
REMARK VINA RESULT:      -3.3      1.484      3.662
REMARK  2 active torsions:
REMARK  status: ('A' for Active; 'I' for Inactive)
REMARK    1  A    between atoms: C_2  and  C_8 
REMARK    2  A    between atoms: C_8  and  O_10 
ROOT
HETATM    1  N   UNL     1      61.449   7.971   3.077  1.00  0.00    -0.065 N 
HETATM    2  C   UNL     1      61.615   9.273   3.776  1.00  0.00     0.237 C 
HETATM    3  N   UNL     1      64.003   8.696   4.318  1.00  0.00    -0.071 N 
HETATM    4  C   UNL     1      62.693   9.084   4.887  1.00  0.00     0.269 C 
HETATM    5  C   UNL     1      62.716   7.514   2.490  1.00  0.00     0.262 C 
HETATM    6  C   UNL     1      63.846   7.443   3.547  1.00  0.00     0.262 C 
HETATM    7  C   UNL     1      60.334   7.910   2.150  1.00  0.00     0.270 C 
HETATM    8  C   UNL     1      65.004   8.537   5.368  1.00  0.00     0.269 C 
HETATM    9  H   UNL     1      61.186   7.304   3.803  1.00  0.00     0.280 HD
HETATM   10  H   UNL     1      64.328   9.436   3.695  1.00  0.00     0.279 HD
ENDROOT
BRANCH   2  11
HETATM   11  C   UNL     1      62.005  10.507   2.919  1.00  0.00     0.199 C 
BRANCH  11  12
HETATM   12  O   UNL     1      61.932  11.734   3.641  1.00  0.00    -0.399 OA
HETATM   13  H   UNL     1      61.139  12.223   3.370  1.00  0.00     0.209 HD
ENDBRANCH  11  12
ENDBRANCH   2  11
TORSDOF 2
ENDMDL
MODEL 7
REMARK VINA RESULT:      -3.3     13.832     14.679
REMARK  2 active torsions:
REMARK  status: ('A' for Active; 'I' for Inactive)
REMARK    1  A    between atoms: C_2  and  C_8 
REMARK    2  A    between atoms: C_8  and  O_10 
ROOT
HETATM    1  N   UNL     1      56.762   0.028  13.219  1.00  0.00    -0.065 N 
HETATM    2  C   UNL     1      57.505   1.305  13.055  1.00  0.00     0.237 C 
HETATM    3  N   UNL     1      55.613   2.563  14.136  1.00  0.00    -0.071 N 
HETATM    4  C   UNL     1      56.458   2.454  12.925  1.00  0.00     0.269 C 
HETATM    5  C   UNL     1      55.892   0.064  14.402  1.00  0.00     0.262 C 
HETATM    6  C   UNL     1      54.925   1.275  14.367  1.00  0.00     0.262 C 
HETATM    7  C   UNL     1      57.578  -1.171  13.145  1.00  0.00     0.270 C 
HETATM    8  C   UNL     1      54.649   3.651  14.005  1.00  0.00     0.269 C 
HETATM    9  H   UNL     1      56.163  -0.046  12.396  1.00  0.00     0.280 HD
HETATM   10  H   UNL     1      56.207   2.776  14.938  1.00  0.00     0.279 HD
ENDROOT
BRANCH   2  11
HETATM   11  C   UNL     1      58.525   1.694  14.160  1.00  0.00     0.199 C 
BRANCH  11  12
HETATM   12  O   UNL     1      59.777   2.128  13.637  1.00  0.00    -0.399 OA
HETATM   13  H   UNL     1      59.905   3.068  13.841  1.00  0.00     0.209 HD
ENDBRANCH  11  12
ENDBRANCH   2  11
TORSDOF 2
ENDMDL
MODEL 8
REMARK VINA RESULT:      -3.2      3.704      5.994
REMARK  2 active torsions:
REMARK  status: ('A' for Active; 'I' for Inactive)
REMARK    1  A    between atoms: C_2  and  C_8 
REMARK    2  A    between atoms: C_8  and  O_10 
ROOT
HETATM    1  N   UNL     1      64.076   7.490   4.388  1.00  0.00    -0.065 N 
HETATM    2  C   UNL     1      63.465   6.510   5.324  1.00  0.00     0.237 C 
HETATM    3  N   UNL     1      65.184   7.081   7.070  1.00  0.00    -0.071 N 
HETATM    4  C   UNL     1      64.590   5.987   6.269  1.00  0.00     0.269 C 
HETATM    5  C   UNL     1      64.696   8.607   5.114  1.00  0.00     0.262 C 
HETATM    6  C   UNL     1      65.728   8.111   6.158  1.00  0.00     0.262 C 
HETATM    7  C   UNL     1      63.214   7.921   3.302  1.00  0.00     0.270 C 
HETATM    8  C   UNL     1      66.224   6.573   7.959  1.00  0.00     0.269 C 
HETATM    9  H   UNL     1      64.819   6.982   3.909  1.00  0.00     0.280 HD
HETATM   10  H   UNL     1      64.459   7.498   7.654  1.00  0.00     0.279 HD
ENDROOT
BRANCH   2  11
HETATM   11  C   UNL     1      62.275   6.990   6.198  1.00  0.00     0.199 C 
BRANCH  11  12
HETATM   12  O   UNL     1      62.614   8.077   7.056  1.00  0.00    -0.399 OA
HETATM   13  H   UNL     1      62.970   8.808   6.527  1.00  0.00     0.209 HD
ENDBRANCH  11  12
ENDBRANCH   2  11
TORSDOF 2
ENDMDL
MODEL 9
REMARK VINA RESULT:      -3.2      3.617      5.198
REMARK  2 active torsions:
REMARK  status: ('A' for Active; 'I' for Inactive)
REMARK    1  A    between atoms: C_2  and  C_8 
REMARK    2  A    between atoms: C_8  and  O_10 
ROOT
HETATM    1  N   UNL     1      64.804   7.287   6.834  1.00  0.00    -0.065 N 
HETATM    2  C   UNL     1      63.609   6.519   6.395  1.00  0.00     0.237 C 
HETATM    3  N   UNL     1      63.153   8.219   4.598  1.00  0.00    -0.071 N 
HETATM    4  C   UNL     1      62.591   7.527   5.780  1.00  0.00     0.269 C 
HETATM    5  C   UNL     1      65.414   8.010   5.710  1.00  0.00     0.262 C 
HETATM    6  C   UNL     1      64.391   8.926   4.992  1.00  0.00     0.262 C 
HETATM    7  C   UNL     1      65.764   6.534   7.619  1.00  0.00     0.270 C 
HETATM    8  C   UNL     1      62.184   9.148   4.026  1.00  0.00     0.269 C 
HETATM    9  H   UNL     1      64.454   7.981   7.495  1.00  0.00     0.280 HD
HETATM   10  H   UNL     1      63.374   7.527   3.881  1.00  0.00     0.279 HD
ENDROOT
BRANCH   2  11
HETATM   11  C   UNL     1      63.825   5.362   5.383  1.00  0.00     0.199 C 
BRANCH  11  12
HETATM   12  O   UNL     1      62.859   5.347   4.335  1.00  0.00    -0.399 OA
HETATM   13  H   UNL     1      62.287   6.127   4.411  1.00  0.00     0.209 HD
ENDBRANCH  11  12
ENDBRANCH   2  11
TORSDOF 2
ENDMDL
