MODEL 1
REMARK VINA RESULT:      -5.7      0.000      0.000
REMARK  2 active torsions:
REMARK  status: ('A' for Active; 'I' for Inactive)
REMARK    1  A    between atoms: C_1  and  N_9 
REMARK    2  A    between atoms: C_3  and  C_6 
ROOT
HETATM    1  C   UNL     1      64.639   7.426   4.350  1.00  0.00     0.045 A 
HETATM    2  C   UNL     1      64.405   6.596   3.213  1.00  0.00     0.018 A 
HETATM    3  C   UNL     1      62.944   8.929   3.494  1.00  0.00     0.119 A 
HETATM    4  N   UNL     1      62.726   8.141   2.410  1.00  0.00    -0.352 N 
ATOM      5  HN  UNL     1      62.032   8.403   1.710  1.00  0.00     0.166 HD
HETATM    6  C   UNL     1      63.886   8.599   4.467  1.00  0.00     0.064 A 
HETATM    7  C   UNL     1      63.437   7.014   2.276  1.00  0.00     0.045 A 
HETATM    8  C   UNL     1      65.111   5.396   2.946  1.00  0.00     0.022 A 
HETATM    9  C   UNL     1      63.204   6.239   1.149  1.00  0.00     0.031 A 
HETATM   10  C   UNL     1      64.838   4.600   1.827  1.00  0.00    -0.061 A 
HETATM   11  C   UNL     1      63.882   5.040   0.919  1.00  0.00     0.009 A 
HETATM   12  C   UNL     1      65.560   3.300   1.635  1.00  0.00     0.048 C 
ENDROOT
BRANCH   1  13
HETATM   13  N   UNL     1      65.629   7.106   5.288  1.00  0.00    -0.377 N 
HETATM   14  C   UNL     1      66.960   7.732   5.184  1.00  0.00     0.150 C 
HETATM   15  C   UNL     1      67.989   6.868   5.952  1.00  0.00     0.252 C 
HETATM   16  N   UNL     1      67.627   6.626   7.366  1.00  0.00    -0.072 N 
HETATM   17  C   UNL     1      66.256   6.068   7.430  1.00  0.00     0.252 C 
HETATM   18  H   UNL     1      68.285   5.963   7.777  1.00  0.00     0.277 HD
HETATM   19  H   UNL     1      67.666   7.503   7.883  1.00  0.00     0.277 HD
HETATM   20  C   UNL     1      65.199   6.929   6.692  1.00  0.00     0.150 C 
ENDBRANCH   1  13
BRANCH   3  21
HETATM   21  C   UNL     1      62.143  10.212   3.657  1.00  0.00     0.432 C 
HETATM   22  F   UNL     1      62.573  11.025   4.664  1.00  0.00    -0.165 F 
HETATM   23  F   UNL     1      62.156  10.980   2.529  1.00  0.00    -0.165 F 
HETATM   24  F   UNL     1      60.823   9.973   3.914  1.00  0.00    -0.165 F 
ENDBRANCH   3  21
TORSDOF 2
ENDMDL
MODEL 2
REMARK VINA RESULT:      -5.6      2.752      4.631
REMARK  2 active torsions:
REMARK  status: ('A' for Active; 'I' for Inactive)
REMARK    1  A    between atoms: C_1  and  N_9 
REMARK    2  A    between atoms: C_3  and  C_6 
ROOT
HETATM    1  C   UNL     1      64.706   7.033   4.009  1.00  0.00     0.045 A 
HETATM    2  C   UNL     1      63.747   8.088   3.952  1.00  0.00     0.018 A 
HETATM    3  C   UNL     1      63.598   6.040   2.098  1.00  0.00     0.119 A 
HETATM    4  N   UNL     1      62.684   7.043   2.047  1.00  0.00    -0.352 N 
ATOM      5  HN  UNL     1      61.954   7.043   1.335  1.00  0.00     0.166 HD
HETATM    6  C   UNL     1      64.607   6.011   3.059  1.00  0.00     0.064 A 
HETATM    7  C   UNL     1      62.758   8.031   2.948  1.00  0.00     0.045 A 
HETATM    8  C   UNL     1      63.703   9.173   4.864  1.00  0.00     0.022 A 
HETATM    9  C   UNL     1      61.798   9.032   2.883  1.00  0.00     0.031 A 
HETATM   10  C   UNL     1      62.756  10.199   4.762  1.00  0.00    -0.061 A 
HETATM   11  C   UNL     1      61.791  10.113   3.766  1.00  0.00     0.009 A 
HETATM   12  C   UNL     1      62.806  11.363   5.706  1.00  0.00     0.048 C 
ENDROOT
BRANCH   1  13
HETATM   13  N   UNL     1      65.677   6.992   5.017  1.00  0.00    -0.377 N 
HETATM   14  C   UNL     1      65.382   6.299   6.284  1.00  0.00     0.150 C 
HETATM   15  C   UNL     1      66.339   6.822   7.383  1.00  0.00     0.252 C 
HETATM   16  N   UNL     1      67.771   6.699   7.035  1.00  0.00    -0.072 N 
HETATM   17  C   UNL     1      68.010   7.341   5.721  1.00  0.00     0.252 C 
HETATM   18  H   UNL     1      68.336   7.161   7.748  1.00  0.00     0.277 HD
HETATM   19  H   UNL     1      68.028   5.714   6.987  1.00  0.00     0.277 HD
HETATM   20  C   UNL     1      67.083   6.816   4.594  1.00  0.00     0.150 C 
ENDBRANCH   1  13
BRANCH   3  21
HETATM   21  C   UNL     1      63.525   4.912   1.080  1.00  0.00     0.432 C 
HETATM   22  F   UNL     1      62.474   4.997   0.214  1.00  0.00    -0.165 F 
HETATM   23  F   UNL     1      64.643   4.843   0.300  1.00  0.00    -0.165 F 
HETATM   24  F   UNL     1      63.420   3.684   1.669  1.00  0.00    -0.165 F 
ENDBRANCH   3  21
TORSDOF 2
ENDMDL
MODEL 3
REMARK VINA RESULT:      -5.6      3.515      5.788
REMARK  2 active torsions:
REMARK  status: ('A' for Active; 'I' for Inactive)
REMARK    1  A    between atoms: C_1  and  N_9 
REMARK    2  A    between atoms: C_3  and  C_6 
ROOT
HETATM    1  C   UNL     1      63.427   8.248   4.560  1.00  0.00     0.045 A 
HETATM    2  C   UNL     1      62.689   7.154   5.104  1.00  0.00     0.018 A 
HETATM    3  C   UNL     1      65.327   7.497   5.860  1.00  0.00     0.119 A 
HETATM    4  N   UNL     1      64.623   6.460   6.380  1.00  0.00    -0.352 N 
ATOM      5  HN  UNL     1      65.059   5.815   7.038  1.00  0.00     0.166 HD
HETATM    6  C   UNL     1      64.760   8.397   4.960  1.00  0.00     0.064 A 
HETATM    7  C   UNL     1      63.345   6.298   6.013  1.00  0.00     0.045 A 
HETATM    8  C   UNL     1      61.325   6.893   4.815  1.00  0.00     0.022 A 
HETATM    9  C   UNL     1      62.645   5.240   6.575  1.00  0.00     0.031 A 
HETATM   10  C   UNL     1      60.641   5.798   5.355  1.00  0.00    -0.061 A 
HETATM   11  C   UNL     1      61.313   4.975   6.252  1.00  0.00     0.009 A 
HETATM   12  C   UNL     1      59.223   5.525   4.953  1.00  0.00     0.048 C 
ENDROOT
BRANCH   1  13
HETATM   13  N   UNL     1      62.821   9.173   3.701  1.00  0.00    -0.377 N 
HETATM   14  C   UNL     1      62.189   8.704   2.455  1.00  0.00     0.150 C 
HETATM   15  C   UNL     1      62.075   9.889   1.466  1.00  0.00     0.252 C 
HETATM   16  N   UNL     1      61.354  11.057   2.016  1.00  0.00    -0.072 N 
HETATM   17  C   UNL     1      61.973  11.450   3.304  1.00  0.00     0.252 C 
HETATM   18  H   UNL     1      61.414  11.835   1.359  1.00  0.00     0.277 HD
HETATM   19  H   UNL     1      60.375  10.816   2.165  1.00  0.00     0.277 HD
HETATM   20  C   UNL     1      62.075  10.287   4.325  1.00  0.00     0.150 C 
ENDBRANCH   1  13
BRANCH   3  21
HETATM   21  C   UNL     1      66.780   7.691   6.269  1.00  0.00     0.432 C 
HETATM   22  F   UNL     1      67.642   7.873   5.229  1.00  0.00    -0.165 F 
HETATM   23  F   UNL     1      66.950   8.773   7.085  1.00  0.00    -0.165 F 
HETATM   24  F   UNL     1      67.270   6.628   6.974  1.00  0.00    -0.165 F 
ENDBRANCH   3  21
TORSDOF 2
ENDMDL
MODEL 4
REMARK VINA RESULT:      -5.5      2.986      3.796
REMARK  2 active torsions:
REMARK  status: ('A' for Active; 'I' for Inactive)
REMARK    1  A    between atoms: C_1  and  N_9 
REMARK    2  A    between atoms: C_3  and  C_6 
ROOT
HETATM    1  C   UNL     1      62.913   7.349   4.385  1.00  0.00     0.045 A 
HETATM    2  C   UNL     1      61.682   6.814   4.870  1.00  0.00     0.018 A 
HETATM    3  C   UNL     1      61.650   8.426   2.622  1.00  0.00     0.119 A 
HETATM    4  N   UNL     1      60.480   7.913   3.081  1.00  0.00    -0.352 N 
ATOM      5  HN  UNL     1      59.602   8.120   2.607  1.00  0.00     0.166 HD
HETATM    6  C   UNL     1      62.867   8.161   3.247  1.00  0.00     0.064 A 
HETATM    7  C   UNL     1      60.500   7.131   4.168  1.00  0.00     0.045 A 
HETATM    8  C   UNL     1      61.575   5.953   5.993  1.00  0.00     0.022 A 
HETATM    9  C   UNL     1      59.291   6.606   4.604  1.00  0.00     0.031 A 
HETATM   10  C   UNL     1      60.345   5.464   6.447  1.00  0.00    -0.061 A 
HETATM   11  C   UNL     1      59.198   5.790   5.732  1.00  0.00     0.009 A 
HETATM   12  C   UNL     1      60.283   4.623   7.686  1.00  0.00     0.048 C 
ENDROOT
BRANCH   1  13
HETATM   13  N   UNL     1      64.132   7.025   4.995  1.00  0.00    -0.377 N 
HETATM   14  C   UNL     1      64.874   5.832   4.549  1.00  0.00     0.150 C 
HETATM   15  C   UNL     1      65.854   5.398   5.665  1.00  0.00     0.252 C 
HETATM   16  N   UNL     1      66.781   6.467   6.093  1.00  0.00    -0.072 N 
HETATM   17  C   UNL     1      66.001   7.672   6.460  1.00  0.00     0.252 C 
HETATM   18  H   UNL     1      67.318   6.150   6.901  1.00  0.00     0.277 HD
HETATM   19  H   UNL     1      67.420   6.691   5.332  1.00  0.00     0.277 HD
HETATM   20  C   UNL     1      65.029   8.146   5.349  1.00  0.00     0.150 C 
ENDBRANCH   1  13
BRANCH   3  21
HETATM   21  C   UNL     1      61.641   9.315   1.388  1.00  0.00     0.432 C 
HETATM   22  F   UNL     1      61.630  10.653   1.653  1.00  0.00    -0.165 F 
HETATM   23  F   UNL     1      62.727   9.105   0.587  1.00  0.00    -0.165 F 
HETATM   24  F   UNL     1      60.555   9.088   0.590  1.00  0.00    -0.165 F 
ENDBRANCH   3  21
TORSDOF 2
ENDMDL
MODEL 5
REMARK VINA RESULT:      -5.5      3.075      5.253
REMARK  2 active torsions:
REMARK  status: ('A' for Active; 'I' for Inactive)
REMARK    1  A    between atoms: C_1  and  N_9 
REMARK    2  A    between atoms: C_3  and  C_6 
ROOT
HETATM    1  C   UNL     1      64.685   6.282   3.981  1.00  0.00     0.045 A 
HETATM    2  C   UNL     1      63.875   7.438   3.773  1.00  0.00     0.018 A 
HETATM    3  C   UNL     1      65.520   7.336   5.995  1.00  0.00     0.119 A 
HETATM    4  N   UNL     1      64.752   8.438   5.794  1.00  0.00    -0.352 N 
ATOM      5  HN  UNL     1      64.779   9.216   6.452  1.00  0.00     0.166 HD
HETATM    6  C   UNL     1      65.507   6.258   5.113  1.00  0.00     0.064 A 
HETATM    7  C   UNL     1      63.959   8.484   4.716  1.00  0.00     0.045 A 
HETATM    8  C   UNL     1      63.016   7.618   2.659  1.00  0.00     0.022 A 
HETATM    9  C   UNL     1      63.199   9.630   4.527  1.00  0.00     0.031 A 
HETATM   10  C   UNL     1      62.223   8.760   2.501  1.00  0.00    -0.061 A 
HETATM   11  C   UNL     1      62.331   9.777   3.443  1.00  0.00     0.009 A 
HETATM   12  C   UNL     1      61.275   8.862   1.344  1.00  0.00     0.048 C 
ENDROOT
BRANCH   1  13
HETATM   13  N   UNL     1      64.700   5.233   3.053  1.00  0.00    -0.377 N 
HETATM   14  C   UNL     1      65.980   4.800   2.464  1.00  0.00     0.150 C 
HETATM   15  C   UNL     1      65.700   4.043   1.143  1.00  0.00     0.252 C 
HETATM   16  N   UNL     1      64.776   2.899   1.297  1.00  0.00    -0.072 N 
HETATM   17  C   UNL     1      63.534   3.360   1.961  1.00  0.00     0.252 C 
HETATM   18  H   UNL     1      64.550   2.518   0.378  1.00  0.00     0.277 HD
HETATM   19  H   UNL     1      65.219   2.175   1.862  1.00  0.00     0.277 HD
HETATM   20  C   UNL     1      63.784   4.099   3.301  1.00  0.00     0.150 C 
ENDBRANCH   1  13
BRANCH   3  21
HETATM   21  C   UNL     1      66.425   7.272   7.216  1.00  0.00     0.432 C 
HETATM   22  F   UNL     1      65.811   6.844   8.355  1.00  0.00    -0.165 F 
HETATM   23  F   UNL     1      67.488   6.435   7.031  1.00  0.00    -0.165 F 
HETATM   24  F   UNL     1      66.972   8.485   7.525  1.00  0.00    -0.165 F 
ENDBRANCH   3  21
TORSDOF 2
ENDMDL
MODEL 6
REMARK VINA RESULT:      -5.4      3.109      4.851
REMARK  2 active torsions:
REMARK  status: ('A' for Active; 'I' for Inactive)
REMARK    1  A    between atoms: C_1  and  N_9 
REMARK    2  A    between atoms: C_3  and  C_6 
ROOT
HETATM    1  C   UNL     1      62.463   6.703   5.617  1.00  0.00     0.045 A 
HETATM    2  C   UNL     1      63.808   7.035   5.959  1.00  0.00     0.018 A 
HETATM    3  C   UNL     1      62.568   8.412   3.904  1.00  0.00     0.119 A 
HETATM    4  N   UNL     1      63.846   8.730   4.233  1.00  0.00    -0.352 N 
ATOM      5  HN  UNL     1      64.344   9.464   3.730  1.00  0.00     0.166 HD
HETATM    6  C   UNL     1      61.861   7.415   4.573  1.00  0.00     0.064 A 
HETATM    7  C   UNL     1      64.442   8.063   5.230  1.00  0.00     0.045 A 
HETATM    8  C   UNL     1      64.537   6.421   7.010  1.00  0.00     0.022 A 
HETATM    9  C   UNL     1      65.743   8.423   5.556  1.00  0.00     0.031 A 
HETATM   10  C   UNL     1      65.862   6.764   7.302  1.00  0.00    -0.061 A 
HETATM   11  C   UNL     1      66.459   7.784   6.570  1.00  0.00     0.009 A 
HETATM   12  C   UNL     1      66.609   6.027   8.372  1.00  0.00     0.048 C 
ENDROOT
BRANCH   1  13
HETATM   13  N   UNL     1      61.751   5.737   6.338  1.00  0.00    -0.377 N 
HETATM   14  C   UNL     1      60.340   5.982   6.688  1.00  0.00     0.150 C 
HETATM   15  C   UNL     1      59.947   5.076   7.879  1.00  0.00     0.252 C 
HETATM   16  N   UNL     1      60.189   3.637   7.639  1.00  0.00    -0.072 N 
HETATM   17  C   UNL     1      61.596   3.442   7.217  1.00  0.00     0.252 C 
HETATM   18  H   UNL     1      60.015   3.114   8.497  1.00  0.00     0.277 HD
HETATM   19  H   UNL     1      59.563   3.302   6.908  1.00  0.00     0.277 HD
HETATM   20  C   UNL     1      62.010   4.319   6.007  1.00  0.00     0.150 C 
ENDBRANCH   1  13
BRANCH   3  21
HETATM   21  C   UNL     1      61.881   9.162   2.774  1.00  0.00     0.432 C 
HETATM   22  F   UNL     1      62.586   9.201   1.607  1.00  0.00    -0.165 F 
HETATM   23  F   UNL     1      60.667   8.624   2.455  1.00  0.00    -0.165 F 
HETATM   24  F   UNL     1      61.624  10.466   3.094  1.00  0.00    -0.165 F 
ENDBRANCH   3  21
TORSDOF 2
ENDMDL
MODEL 7
REMARK VINA RESULT:      -5.1      1.823      4.541
REMARK  2 active torsions:
REMARK  status: ('A' for Active; 'I' for Inactive)
REMARK    1  A    between atoms: C_1  and  N_9 
REMARK    2  A    between atoms: C_3  and  C_6 
ROOT
HETATM    1  C   UNL     1      63.777   6.752   3.085  1.00  0.00     0.045 A 
HETATM    2  C   UNL     1      64.781   6.828   4.096  1.00  0.00     0.018 A 
HETATM    3  C   UNL     1      63.088   8.984   3.723  1.00  0.00     0.119 A 
HETATM    4  N   UNL     1      64.040   9.054   4.688  1.00  0.00    -0.352 N 
ATOM      5  HN  UNL     1      64.132   9.889   5.265  1.00  0.00     0.166 HD
HETATM    6  C   UNL     1      62.935   7.857   2.918  1.00  0.00     0.064 A 
HETATM    7  C   UNL     1      64.856   8.008   4.867  1.00  0.00     0.045 A 
HETATM    8  C   UNL     1      65.686   5.779   4.400  1.00  0.00     0.022 A 
HETATM    9  C   UNL     1      65.808   8.101   5.873  1.00  0.00     0.031 A 
HETATM   10  C   UNL     1      66.669   5.901   5.389  1.00  0.00    -0.061 A 
HETATM   11  C   UNL     1      66.715   7.073   6.136  1.00  0.00     0.009 A 
HETATM   12  C   UNL     1      67.649   4.790   5.614  1.00  0.00     0.048 C 
ENDROOT
BRANCH   1  13
HETATM   13  N   UNL     1      63.604   5.588   2.325  1.00  0.00    -0.377 N 
HETATM   14  C   UNL     1      62.681   4.541   2.797  1.00  0.00     0.150 C 
HETATM   15  C   UNL     1      63.044   3.199   2.116  1.00  0.00     0.252 C 
HETATM   16  N   UNL     1      63.057   3.265   0.639  1.00  0.00    -0.072 N 
HETATM   17  C   UNL     1      63.935   4.378   0.207  1.00  0.00     0.252 C 
HETATM   18  H   UNL     1      63.410   2.385   0.262  1.00  0.00     0.277 HD
HETATM   19  H   UNL     1      62.110   3.422   0.296  1.00  0.00     0.277 HD
HETATM   20  C   UNL     1      63.576   5.740   0.854  1.00  0.00     0.150 C 
ENDBRANCH   1  13
BRANCH   3  21
HETATM   21  C   UNL     1      62.154  10.166   3.509  1.00  0.00     0.432 C 
HETATM   22  F   UNL     1      62.148  10.661   2.239  1.00  0.00    -0.165 F 
HETATM   23  F   UNL     1      60.854   9.860   3.794  1.00  0.00    -0.165 F 
HETATM   24  F   UNL     1      62.461  11.225   4.317  1.00  0.00    -0.165 F 
ENDBRANCH   3  21
TORSDOF 2
ENDMDL
MODEL 8
REMARK VINA RESULT:      -5.1      3.532      5.681
REMARK  2 active torsions:
REMARK  status: ('A' for Active; 'I' for Inactive)
REMARK    1  A    between atoms: C_1  and  N_9 
REMARK    2  A    between atoms: C_3  and  C_6 
ROOT
HETATM    1  C   UNL     1      62.337   7.474   4.644  1.00  0.00     0.045 A 
HETATM    2  C   UNL     1      63.635   7.030   5.037  1.00  0.00     0.018 A 
HETATM    3  C   UNL     1      61.410   5.782   6.107  1.00  0.00     0.119 A 
HETATM    4  N   UNL     1      62.645   5.357   6.477  1.00  0.00    -0.352 N 
ATOM      5  HN  UNL     1      62.753   4.591   7.141  1.00  0.00     0.166 HD
HETATM    6  C   UNL     1      61.230   6.825   5.201  1.00  0.00     0.064 A 
HETATM    7  C   UNL     1      63.720   5.963   5.955  1.00  0.00     0.045 A 
HETATM    8  C   UNL     1      64.847   7.571   4.536  1.00  0.00     0.022 A 
HETATM    9  C   UNL     1      64.969   5.495   6.338  1.00  0.00     0.031 A 
HETATM   10  C   UNL     1      66.101   7.119   4.962  1.00  0.00    -0.061 A 
HETATM   11  C   UNL     1      66.153   6.062   5.863  1.00  0.00     0.009 A 
HETATM   12  C   UNL     1      67.348   7.781   4.458  1.00  0.00     0.048 C 
ENDROOT
BRANCH   1  13
HETATM   13  N   UNL     1      62.178   8.487   3.690  1.00  0.00    -0.377 N 
HETATM   14  C   UNL     1      61.745   8.139   2.324  1.00  0.00     0.150 C 
HETATM   15  C   UNL     1      62.141   9.283   1.360  1.00  0.00     0.252 C 
HETATM   16  N   UNL     1      61.617  10.607   1.758  1.00  0.00    -0.072 N 
HETATM   17  C   UNL     1      62.009  10.885   3.160  1.00  0.00     0.252 C 
HETATM   18  H   UNL     1      62.006  11.325   1.146  1.00  0.00     0.277 HD
HETATM   19  H   UNL     1      60.602  10.611   1.678  1.00  0.00     0.277 HD
HETATM   20  C   UNL     1      61.600   9.767   4.153  1.00  0.00     0.150 C 
ENDBRANCH   1  13
BRANCH   3  21
HETATM   21  C   UNL     1      60.182   5.102   6.693  1.00  0.00     0.432 C 
HETATM   22  F   UNL     1      59.545   4.249   5.840  1.00  0.00    -0.165 F 
HETATM   23  F   UNL     1      60.476   4.365   7.804  1.00  0.00    -0.165 F 
HETATM   24  F   UNL     1      59.232   5.998   7.096  1.00  0.00    -0.165 F 
ENDBRANCH   3  21
TORSDOF 2
ENDMDL
MODEL 9
REMARK VINA RESULT:      -5.0      4.078      5.911
REMARK  2 active torsions:
REMARK  status: ('A' for Active; 'I' for Inactive)
REMARK    1  A    between atoms: C_1  and  N_9 
REMARK    2  A    between atoms: C_3  and  C_6 
ROOT
HETATM    1  C   UNL     1      63.862   5.352   6.048  1.00  0.00     0.045 A 
HETATM    2  C   UNL     1      63.584   6.601   5.415  1.00  0.00     0.018 A 
HETATM    3  C   UNL     1      65.711   6.436   7.176  1.00  0.00     0.119 A 
HETATM    4  N   UNL     1      65.448   7.622   6.570  1.00  0.00    -0.352 N 
ATOM      5  HN  UNL     1      66.024   8.441   6.762  1.00  0.00     0.166 HD
HETATM    6  C   UNL     1      64.944   5.298   6.934  1.00  0.00     0.064 A 
HETATM    7  C   UNL     1      64.419   7.697   5.716  1.00  0.00     0.045 A 
HETATM    8  C   UNL     1      62.542   6.801   4.473  1.00  0.00     0.022 A 
HETATM    9  C   UNL     1      64.187   8.918   5.097  1.00  0.00     0.031 A 
HETATM   10  C   UNL     1      62.291   8.047   3.888  1.00  0.00    -0.061 A 
HETATM   11  C   UNL     1      63.134   9.107   4.200  1.00  0.00     0.009 A 
HETATM   12  C   UNL     1      61.127   8.219   2.959  1.00  0.00     0.048 C 
ENDROOT
BRANCH   1  13
HETATM   13  N   UNL     1      63.114   4.207   5.749  1.00  0.00    -0.377 N 
HETATM   14  C   UNL     1      63.711   3.143   4.922  1.00  0.00     0.150 C 
HETATM   15  C   UNL     1      62.580   2.282   4.308  1.00  0.00     0.252 C 
HETATM   16  N   UNL     1      61.653   1.715   5.310  1.00  0.00    -0.072 N 
HETATM   17  C   UNL     1      61.134   2.806   6.168  1.00  0.00     0.252 C 
HETATM   18  H   UNL     1      60.875   1.257   4.833  1.00  0.00     0.277 HD
HETATM   19  H   UNL     1      62.145   1.032   5.884  1.00  0.00     0.277 HD
HETATM   20  C   UNL     1      62.246   3.668   6.818  1.00  0.00     0.150 C 
ENDBRANCH   1  13
BRANCH   3  21
HETATM   21  C   UNL     1      66.877   6.338   8.148  1.00  0.00     0.432 C 
HETATM   22  F   UNL     1      67.153   7.491   8.821  1.00  0.00    -0.165 F 
HETATM   23  F   UNL     1      66.675   5.388   9.108  1.00  0.00    -0.165 F 
HETATM   24  F   UNL     1      68.043   5.983   7.530  1.00  0.00    -0.165 F 
ENDBRANCH   3  21
TORSDOF 2
ENDMDL
