MODEL 1
REMARK VINA RESULT:      -5.1      0.000      0.000
REMARK  5 active torsions:
REMARK  status: ('A' for Active; 'I' for Inactive)
REMARK    1  A    between atoms: C_1  and  N_9 
REMARK    2  A    between atoms: C_2  and  C_5 
REMARK    3  A    between atoms: N_9  and  C_16 
REMARK    4  A    between atoms: O_14  and  C_18 
REMARK    5  A    between atoms: C_16  and  C_18 
ROOT
HETATM    1  C   UNL     1      64.324   7.584   4.735  1.00  0.00     0.044 A 
HETATM    2  C   UNL     1      63.570   6.820   2.540  1.00  0.00     0.119 A 
HETATM    3  N   UNL     1      62.824   7.929   2.346  1.00  0.00    -0.352 N 
ATOM      4  HN  UNL     1      62.284   8.048   1.489  1.00  0.00     0.166 HD
HETATM    5  C   UNL     1      64.308   6.624   3.708  1.00  0.00     0.064 A 
HETATM    6  C   UNL     1      63.537   8.770   4.512  1.00  0.00     0.017 A 
HETATM    7  C   UNL     1      62.806   8.864   3.297  1.00  0.00     0.045 A 
HETATM    8  C   UNL     1      63.443   9.894   5.378  1.00  0.00     0.016 A 
HETATM    9  C   UNL     1      62.028   9.980   3.023  1.00  0.00     0.030 A 
HETATM   10  C   UNL     1      62.640  11.000   5.094  1.00  0.00     0.001 A 
HETATM   11  C   UNL     1      61.924  11.044   3.910  1.00  0.00     0.002 A 
ENDROOT
BRANCH   1  12
HETATM   12  N   UNL     1      65.081   7.353   5.900  1.00  0.00    -0.382 N 
HETATM   13  C   UNL     1      64.721   6.226   6.770  1.00  0.00     0.150 C 
BRANCH  12  14
HETATM   14  C   UNL     1      66.479   7.836   6.041  1.00  0.00     0.148 C 
BRANCH  14  15
HETATM   15  C   UNL     1      67.471   6.681   5.862  1.00  0.00     0.183 C 
BRANCH  15  16
HETATM   16  O   UNL     1      67.737   6.457   4.479  1.00  0.00    -0.399 OA
HETATM   17  H   UNL     1      67.150   7.014   3.942  1.00  0.00     0.209 HD
ENDBRANCH  15  16
ENDBRANCH  14  15
ENDBRANCH  12  14
ENDBRANCH   1  12
BRANCH   2  18
HETATM   18  C   UNL     1      63.607   5.751   1.457  1.00  0.00     0.432 C 
HETATM   19  F   UNL     1      62.597   4.837   1.529  1.00  0.00    -0.165 F 
HETATM   20  F   UNL     1      63.537   6.281   0.200  1.00  0.00    -0.165 F 
HETATM   21  F   UNL     1      64.764   5.026   1.479  1.00  0.00    -0.165 F 
ENDBRANCH   2  18
TORSDOF 5
ENDMDL
MODEL 2
REMARK VINA RESULT:      -5.0      2.859      3.651
REMARK  5 active torsions:
REMARK  status: ('A' for Active; 'I' for Inactive)
REMARK    1  A    between atoms: C_1  and  N_9 
REMARK    2  A    between atoms: C_2  and  C_5 
REMARK    3  A    between atoms: N_9  and  C_16 
REMARK    4  A    between atoms: O_14  and  C_18 
REMARK    5  A    between atoms: C_16  and  C_18 
ROOT
HETATM    1  C   UNL     1      63.331   7.440   4.193  1.00  0.00     0.044 A 
HETATM    2  C   UNL     1      61.791   8.282   2.492  1.00  0.00     0.119 A 
HETATM    3  N   UNL     1      60.722   7.726   3.102  1.00  0.00    -0.352 N 
ATOM      4  HN  UNL     1      59.787   7.828   2.707  1.00  0.00     0.166 HD
HETATM    5  C   UNL     1      63.083   8.148   3.004  1.00  0.00     0.064 A 
HETATM    6  C   UNL     1      62.182   6.863   4.844  1.00  0.00     0.017 A 
HETATM    7  C   UNL     1      60.912   7.041   4.231  1.00  0.00     0.045 A 
HETATM    8  C   UNL     1      62.179   6.156   6.077  1.00  0.00     0.016 A 
HETATM    9  C   UNL     1      59.767   6.510   4.808  1.00  0.00     0.030 A 
HETATM   10  C   UNL     1      61.020   5.612   6.633  1.00  0.00     0.001 A 
HETATM   11  C   UNL     1      59.804   5.786   5.993  1.00  0.00     0.002 A 
ENDROOT
BRANCH   1  12
HETATM   12  N   UNL     1      64.647   7.326   4.680  1.00  0.00    -0.382 N 
HETATM   13  C   UNL     1      65.554   6.351   4.058  1.00  0.00     0.150 C 
BRANCH  12  14
HETATM   14  C   UNL     1      65.318   8.433   5.408  1.00  0.00     0.148 C 
BRANCH  14  15
HETATM   15  C   UNL     1      66.411   7.889   6.333  1.00  0.00     0.183 C 
BRANCH  15  16
HETATM   16  O   UNL     1      66.960   8.934   7.132  1.00  0.00    -0.399 OA
HETATM   17  H   UNL     1      66.776   8.756   8.069  1.00  0.00     0.209 HD
ENDBRANCH  15  16
ENDBRANCH  14  15
ENDBRANCH  12  14
ENDBRANCH   1  12
BRANCH   2  18
HETATM   18  C   UNL     1      61.585   9.075   1.210  1.00  0.00     0.432 C 
HETATM   19  F   UNL     1      62.513   8.833   0.239  1.00  0.00    -0.165 F 
HETATM   20  F   UNL     1      60.373   8.825   0.632  1.00  0.00    -0.165 F 
HETATM   21  F   UNL     1      61.614  10.424   1.420  1.00  0.00    -0.165 F 
ENDBRANCH   2  18
TORSDOF 5
ENDMDL
MODEL 3
REMARK VINA RESULT:      -4.9      3.645      5.482
REMARK  5 active torsions:
REMARK  status: ('A' for Active; 'I' for Inactive)
REMARK    1  A    between atoms: C_1  and  N_9 
REMARK    2  A    between atoms: C_2  and  C_5 
REMARK    3  A    between atoms: N_9  and  C_16 
REMARK    4  A    between atoms: O_14  and  C_18 
REMARK    5  A    between atoms: C_16  and  C_18 
ROOT
HETATM    1  C   UNL     1      63.252   8.242   4.227  1.00  0.00     0.044 A 
HETATM    2  C   UNL     1      65.048   7.580   5.746  1.00  0.00     0.119 A 
HETATM    3  N   UNL     1      64.267   6.668   6.365  1.00  0.00    -0.352 N 
ATOM      4  HN  UNL     1      64.633   6.107   7.134  1.00  0.00     0.166 HD
HETATM    5  C   UNL     1      64.569   8.371   4.700  1.00  0.00     0.064 A 
HETATM    6  C   UNL     1      62.431   7.256   4.884  1.00  0.00     0.017 A 
HETATM    7  C   UNL     1      63.008   6.516   5.951  1.00  0.00     0.045 A 
HETATM    8  C   UNL     1      61.094   6.912   4.545  1.00  0.00     0.016 A 
HETATM    9  C   UNL     1      62.270   5.553   6.624  1.00  0.00     0.030 A 
HETATM   10  C   UNL     1      60.361   5.953   5.245  1.00  0.00     0.001 A 
HETATM   11  C   UNL     1      60.950   5.269   6.295  1.00  0.00     0.002 A 
ENDROOT
BRANCH   1  12
HETATM   12  N   UNL     1      62.804   9.056   3.169  1.00  0.00    -0.382 N 
HETATM   13  C   UNL     1      62.584   8.451   1.849  1.00  0.00     0.150 C 
BRANCH  12  14
HETATM   14  C   UNL     1      62.075  10.328   3.407  1.00  0.00     0.148 C 
BRANCH  14  15
HETATM   15  C   UNL     1      61.590  10.930   2.084  1.00  0.00     0.183 C 
BRANCH  15  16
HETATM   16  O   UNL     1      62.130  12.237   1.898  1.00  0.00    -0.399 OA
HETATM   17  H   UNL     1      61.407  12.882   1.852  1.00  0.00     0.209 HD
ENDBRANCH  15  16
ENDBRANCH  14  15
ENDBRANCH  12  14
ENDBRANCH   1  12
BRANCH   2  18
HETATM   18  C   UNL     1      66.489   7.755   6.202  1.00  0.00     0.432 C 
HETATM   19  F   UNL     1      66.960   6.747   6.992  1.00  0.00    -0.165 F 
HETATM   20  F   UNL     1      67.360   7.839   5.153  1.00  0.00    -0.165 F 
HETATM   21  F   UNL     1      66.675   8.903   6.918  1.00  0.00    -0.165 F 
ENDBRANCH   2  18
TORSDOF 5
ENDMDL
MODEL 4
REMARK VINA RESULT:      -4.9      3.443      5.321
REMARK  5 active torsions:
REMARK  status: ('A' for Active; 'I' for Inactive)
REMARK    1  A    between atoms: C_1  and  N_9 
REMARK    2  A    between atoms: C_2  and  C_5 
REMARK    3  A    between atoms: N_9  and  C_16 
REMARK    4  A    between atoms: O_14  and  C_18 
REMARK    5  A    between atoms: C_16  and  C_18 
ROOT
HETATM    1  C   UNL     1      62.652   7.947   4.440  1.00  0.00     0.044 A 
HETATM    2  C   UNL     1      61.600   6.359   5.971  1.00  0.00     0.119 A 
HETATM    3  N   UNL     1      62.763   6.119   6.614  1.00  0.00    -0.352 N 
ATOM      4  HN  UNL     1      62.801   5.461   7.392  1.00  0.00     0.166 HD
HETATM    5  C   UNL     1      61.522   7.246   4.896  1.00  0.00     0.064 A 
HETATM    6  C   UNL     1      63.885   7.695   5.142  1.00  0.00     0.017 A 
HETATM    7  C   UNL     1      63.862   6.760   6.211  1.00  0.00     0.045 A 
HETATM    8  C   UNL     1      65.136   8.324   4.898  1.00  0.00     0.016 A 
HETATM    9  C   UNL     1      65.017   6.473   6.926  1.00  0.00     0.030 A 
HETATM   10  C   UNL     1      66.292   8.009   5.615  1.00  0.00     0.001 A 
HETATM   11  C   UNL     1      66.234   7.075   6.635  1.00  0.00     0.002 A 
ENDROOT
BRANCH   1  12
HETATM   12  N   UNL     1      62.535   8.834   3.353  1.00  0.00    -0.382 N 
HETATM   13  C   UNL     1      62.644   8.304   1.987  1.00  0.00     0.150 C 
BRANCH  12  14
HETATM   14  C   UNL     1      61.827  10.135   3.468  1.00  0.00     0.148 C 
BRANCH  14  15
HETATM   15  C   UNL     1      62.429  10.980   4.595  1.00  0.00     0.183 C 
BRANCH  15  16
HETATM   16  O   UNL     1      62.064  12.351   4.446  1.00  0.00    -0.399 OA
HETATM   17  H   UNL     1      61.408  12.586   5.122  1.00  0.00     0.209 HD
ENDBRANCH  15  16
ENDBRANCH  14  15
ENDBRANCH  12  14
ENDBRANCH   1  12
BRANCH   2  18
HETATM   18  C   UNL     1      60.337   5.643   6.428  1.00  0.00     0.432 C 
HETATM   19  F   UNL     1      60.104   5.708   7.771  1.00  0.00    -0.165 F 
HETATM   20  F   UNL     1      59.213   6.140   5.834  1.00  0.00    -0.165 F 
HETATM   21  F   UNL     1      60.351   4.313   6.120  1.00  0.00    -0.165 F 
ENDBRANCH   2  18
TORSDOF 5
ENDMDL
MODEL 5
REMARK VINA RESULT:      -4.9      3.420      5.044
REMARK  5 active torsions:
REMARK  status: ('A' for Active; 'I' for Inactive)
REMARK    1  A    between atoms: C_1  and  N_9 
REMARK    2  A    between atoms: C_2  and  C_5 
REMARK    3  A    between atoms: N_9  and  C_16 
REMARK    4  A    between atoms: O_14  and  C_18 
REMARK    5  A    between atoms: C_16  and  C_18 
ROOT
HETATM    1  C   UNL     1      62.389   7.717   2.331  1.00  0.00     0.044 A 
HETATM    2  C   UNL     1      62.769   7.387   4.722  1.00  0.00     0.119 A 
HETATM    3  N   UNL     1      62.623   8.703   4.986  1.00  0.00    -0.352 N 
ATOM      4  HN  UNL     1      62.711   9.055   5.940  1.00  0.00     0.166 HD
HETATM    5  C   UNL     1      62.667   6.880   3.426  1.00  0.00     0.064 A 
HETATM    6  C   UNL     1      62.220   9.117   2.625  1.00  0.00     0.017 A 
HETATM    7  C   UNL     1      62.363   9.535   3.976  1.00  0.00     0.045 A 
HETATM    8  C   UNL     1      61.881  10.138   1.695  1.00  0.00     0.016 A 
HETATM    9  C   UNL     1      62.212  10.870   4.324  1.00  0.00     0.030 A 
HETATM   10  C   UNL     1      61.752  11.479   2.060  1.00  0.00     0.001 A 
HETATM   11  C   UNL     1      61.922  11.850   3.383  1.00  0.00     0.002 A 
ENDROOT
BRANCH   1  12
HETATM   12  N   UNL     1      62.292   7.170   1.037  1.00  0.00    -0.382 N 
HETATM   13  C   UNL     1      63.237   6.119   0.636  1.00  0.00     0.150 C 
BRANCH  12  14
HETATM   14  C   UNL     1      61.031   7.213   0.254  1.00  0.00     0.148 C 
BRANCH  14  15
HETATM   15  C   UNL     1      59.820   6.992   1.167  1.00  0.00     0.183 C 
BRANCH  15  16
HETATM   16  O   UNL     1      59.019   8.170   1.234  1.00  0.00    -0.399 OA
HETATM   17  H   UNL     1      59.312   8.718   1.980  1.00  0.00     0.209 HD
ENDBRANCH  15  16
ENDBRANCH  14  15
ENDBRANCH  12  14
ENDBRANCH   1  12
BRANCH   2  18
HETATM   18  C   UNL     1      63.056   6.427   5.868  1.00  0.00     0.432 C 
HETATM   19  F   UNL     1      63.677   5.271   5.497  1.00  0.00    -0.165 F 
HETATM   20  F   UNL     1      63.855   6.985   6.826  1.00  0.00    -0.165 F 
HETATM   21  F   UNL     1      61.921   6.043   6.524  1.00  0.00    -0.165 F 
ENDBRANCH   2  18
TORSDOF 5
ENDMDL
MODEL 6
REMARK VINA RESULT:      -4.9      4.200      6.334
REMARK  5 active torsions:
REMARK  status: ('A' for Active; 'I' for Inactive)
REMARK    1  A    between atoms: C_1  and  N_9 
REMARK    2  A    between atoms: C_2  and  C_5 
REMARK    3  A    between atoms: N_9  and  C_16 
REMARK    4  A    between atoms: O_14  and  C_18 
REMARK    5  A    between atoms: C_16  and  C_18 
ROOT
HETATM    1  C   UNL     1      64.908   6.861   5.672  1.00  0.00     0.044 A 
HETATM    2  C   UNL     1      66.474   6.193   7.426  1.00  0.00     0.119 A 
HETATM    3  N   UNL     1      67.113   5.330   6.607  1.00  0.00    -0.352 N 
ATOM      4  HN  UNL     1      67.903   4.780   6.945  1.00  0.00     0.166 HD
HETATM    5  C   UNL     1      65.384   6.949   6.992  1.00  0.00     0.064 A 
HETATM    6  C   UNL     1      65.606   5.948   4.802  1.00  0.00     0.017 A 
HETATM    7  C   UNL     1      66.692   5.210   5.346  1.00  0.00     0.045 A 
HETATM    8  C   UNL     1      65.343   5.732   3.422  1.00  0.00     0.016 A 
HETATM    9  C   UNL     1      67.404   4.316   4.560  1.00  0.00     0.030 A 
HETATM   10  C   UNL     1      66.057   4.814   2.651  1.00  0.00     0.001 A 
HETATM   11  C   UNL     1      67.094   4.096   3.224  1.00  0.00     0.002 A 
ENDROOT
BRANCH   1  12
HETATM   12  N   UNL     1      63.806   7.639   5.270  1.00  0.00    -0.382 N 
HETATM   13  C   UNL     1      62.502   7.408   5.906  1.00  0.00     0.150 C 
BRANCH  12  14
HETATM   14  C   UNL     1      63.971   8.974   4.639  1.00  0.00     0.148 C 
BRANCH  14  15
HETATM   15  C   UNL     1      63.158  10.032   5.392  1.00  0.00     0.183 C 
BRANCH  15  16
HETATM   16  O   UNL     1      64.019  11.020   5.955  1.00  0.00    -0.399 OA
HETATM   17  H   UNL     1      63.486  11.697   6.402  1.00  0.00     0.209 HD
ENDBRANCH  15  16
ENDBRANCH  14  15
ENDBRANCH  12  14
ENDBRANCH   1  12
BRANCH   2  18
HETATM   18  C   UNL     1      66.952   6.346   8.862  1.00  0.00     0.432 C 
HETATM   19  F   UNL     1      67.954   5.492   9.220  1.00  0.00    -0.165 F 
HETATM   20  F   UNL     1      67.427   7.601   9.122  1.00  0.00    -0.165 F 
HETATM   21  F   UNL     1      65.952   6.144   9.770  1.00  0.00    -0.165 F 
ENDBRANCH   2  18
TORSDOF 5
ENDMDL
MODEL 7
REMARK VINA RESULT:      -4.8      3.254      4.717
REMARK  5 active torsions:
REMARK  status: ('A' for Active; 'I' for Inactive)
REMARK    1  A    between atoms: C_1  and  N_9 
REMARK    2  A    between atoms: C_2  and  C_5 
REMARK    3  A    between atoms: N_9  and  C_16 
REMARK    4  A    between atoms: O_14  and  C_18 
REMARK    5  A    between atoms: C_16  and  C_18 
ROOT
HETATM    1  C   UNL     1      63.741   6.958   3.956  1.00  0.00     0.044 A 
HETATM    2  C   UNL     1      65.359   7.512   5.702  1.00  0.00     0.119 A 
HETATM    3  N   UNL     1      64.883   8.770   5.825  1.00  0.00    -0.352 N 
ATOM      4  HN  UNL     1      65.296   9.419   6.495  1.00  0.00     0.166 HD
HETATM    5  C   UNL     1      64.820   6.607   4.785  1.00  0.00     0.064 A 
HETATM    6  C   UNL     1      63.231   8.298   4.105  1.00  0.00     0.017 A 
HETATM    7  C   UNL     1      63.862   9.147   5.053  1.00  0.00     0.045 A 
HETATM    8  C   UNL     1      62.118   8.857   3.419  1.00  0.00     0.016 A 
HETATM    9  C   UNL     1      63.418  10.448   5.244  1.00  0.00     0.030 A 
HETATM   10  C   UNL     1      61.698  10.174   3.610  1.00  0.00     0.001 A 
HETATM   11  C   UNL     1      62.353  10.978   4.527  1.00  0.00     0.002 A 
ENDROOT
BRANCH   1  12
HETATM   12  N   UNL     1      63.224   6.019   3.043  1.00  0.00    -0.382 N 
HETATM   13  C   UNL     1      63.934   5.790   1.778  1.00  0.00     0.150 C 
BRANCH  12  14
HETATM   14  C   UNL     1      62.328   4.914   3.471  1.00  0.00     0.148 C 
BRANCH  14  15
HETATM   15  C   UNL     1      60.861   5.352   3.409  1.00  0.00     0.183 C 
BRANCH  15  16
HETATM   16  O   UNL     1      60.426   5.834   4.678  1.00  0.00    -0.399 OA
HETATM   17  H   UNL     1      61.197   5.983   5.249  1.00  0.00     0.209 HD
ENDBRANCH  15  16
ENDBRANCH  14  15
ENDBRANCH  12  14
ENDBRANCH   1  12
BRANCH   2  18
HETATM   18  C   UNL     1      66.516   7.066   6.584  1.00  0.00     0.432 C 
HETATM   19  F   UNL     1      67.682   6.834   5.915  1.00  0.00    -0.165 F 
HETATM   20  F   UNL     1      66.820   7.986   7.547  1.00  0.00    -0.165 F 
HETATM   21  F   UNL     1      66.242   5.912   7.261  1.00  0.00    -0.165 F 
ENDBRANCH   2  18
TORSDOF 5
ENDMDL
MODEL 8
REMARK VINA RESULT:      -4.8      3.187      4.671
REMARK  5 active torsions:
REMARK  status: ('A' for Active; 'I' for Inactive)
REMARK    1  A    between atoms: C_1  and  N_9 
REMARK    2  A    between atoms: C_2  and  C_5 
REMARK    3  A    between atoms: N_9  and  C_16 
REMARK    4  A    between atoms: O_14  and  C_18 
REMARK    5  A    between atoms: C_16  and  C_18 
ROOT
HETATM    1  C   UNL     1      63.616   7.181   3.867  1.00  0.00     0.044 A 
HETATM    2  C   UNL     1      65.292   7.536   5.609  1.00  0.00     0.119 A 
HETATM    3  N   UNL     1      64.876   8.801   5.834  1.00  0.00    -0.352 N 
ATOM      4  HN  UNL     1      65.331   9.381   6.538  1.00  0.00     0.166 HD
HETATM    5  C   UNL     1      64.695   6.725   4.643  1.00  0.00     0.064 A 
HETATM    6  C   UNL     1      63.169   8.527   4.124  1.00  0.00     0.017 A 
HETATM    7  C   UNL     1      63.857   9.277   5.116  1.00  0.00     0.045 A 
HETATM    8  C   UNL     1      62.068   9.182   3.508  1.00  0.00     0.016 A 
HETATM    9  C   UNL     1      63.475  10.578   5.411  1.00  0.00     0.030 A 
HETATM   10  C   UNL     1      61.710  10.498   3.803  1.00  0.00     0.001 A 
HETATM   11  C   UNL     1      62.420  11.205   4.759  1.00  0.00     0.002 A 
ENDROOT
BRANCH   1  12
HETATM   12  N   UNL     1      63.038   6.335   2.901  1.00  0.00    -0.382 N 
HETATM   13  C   UNL     1      61.808   5.606   3.239  1.00  0.00     0.150 C 
BRANCH  12  14
HETATM   14  C   UNL     1      63.286   6.511   1.448  1.00  0.00     0.148 C 
BRANCH  14  15
HETATM   15  C   UNL     1      61.979   6.820   0.709  1.00  0.00     0.183 C 
BRANCH  15  16
HETATM   16  O   UNL     1      61.991   8.152   0.200  1.00  0.00    -0.399 OA
HETATM   17  H   UNL     1      61.200   8.298  -0.342  1.00  0.00     0.209 HD
ENDBRANCH  15  16
ENDBRANCH  14  15
ENDBRANCH  12  14
ENDBRANCH   1  12
BRANCH   2  18
HETATM   18  C   UNL     1      66.447   6.978   6.429  1.00  0.00     0.432 C 
HETATM   19  F   UNL     1      67.653   6.995   5.793  1.00  0.00    -0.165 F 
HETATM   20  F   UNL     1      66.635   7.662   7.596  1.00  0.00    -0.165 F 
HETATM   21  F   UNL     1      66.243   5.680   6.801  1.00  0.00    -0.165 F 
ENDBRANCH   2  18
TORSDOF 5
ENDMDL
MODEL 9
REMARK VINA RESULT:      -4.7      3.210      5.498
REMARK  5 active torsions:
REMARK  status: ('A' for Active; 'I' for Inactive)
REMARK    1  A    between atoms: C_1  and  N_9 
REMARK    2  A    between atoms: C_2  and  C_5 
REMARK    3  A    between atoms: N_9  and  C_16 
REMARK    4  A    between atoms: O_14  and  C_18 
REMARK    5  A    between atoms: C_16  and  C_18 
ROOT
HETATM    1  C   UNL     1      65.484   4.967   5.701  1.00  0.00     0.044 A 
HETATM    2  C   UNL     1      64.763   7.301   5.765  1.00  0.00     0.119 A 
HETATM    3  N   UNL     1      65.499   7.558   6.868  1.00  0.00    -0.352 N 
ATOM      4  HN  UNL     1      65.500   8.488   7.287  1.00  0.00     0.166 HD
HETATM    5  C   UNL     1      64.733   6.034   5.179  1.00  0.00     0.064 A 
HETATM    6  C   UNL     1      66.277   5.255   6.869  1.00  0.00     0.017 A 
HETATM    7  C   UNL     1      66.223   6.572   7.400  1.00  0.00     0.045 A 
HETATM    8  C   UNL     1      67.153   4.355   7.536  1.00  0.00     0.016 A 
HETATM    9  C   UNL     1      66.963   6.913   8.524  1.00  0.00     0.030 A 
HETATM   10  C   UNL     1      67.875   4.710   8.676  1.00  0.00     0.001 A 
HETATM   11  C   UNL     1      67.778   5.998   9.177  1.00  0.00     0.002 A 
ENDROOT
BRANCH   1  12
HETATM   12  N   UNL     1      65.429   3.703   5.083  1.00  0.00    -0.382 N 
HETATM   13  C   UNL     1      64.462   2.712   5.574  1.00  0.00     0.150 C 
BRANCH  12  14
HETATM   14  C   UNL     1      65.904   3.483   3.693  1.00  0.00     0.148 C 
BRANCH  14  15
HETATM   15  C   UNL     1      67.381   3.870   3.558  1.00  0.00     0.183 C 
BRANCH  15  16
HETATM   16  O   UNL     1      67.518   5.081   2.818  1.00  0.00    -0.399 OA
HETATM   17  H   UNL     1      66.960   5.768   3.216  1.00  0.00     0.209 HD
ENDBRANCH  15  16
ENDBRANCH  14  15
ENDBRANCH  12  14
ENDBRANCH   1  12
BRANCH   2  18
HETATM   18  C   UNL     1      63.942   8.421   5.143  1.00  0.00     0.432 C 
HETATM   19  F   UNL     1      64.415   9.676   5.391  1.00  0.00    -0.165 F 
HETATM   20  F   UNL     1      63.867   8.317   3.783  1.00  0.00    -0.165 F 
HETATM   21  F   UNL     1      62.647   8.421   5.576  1.00  0.00    -0.165 F 
ENDBRANCH   2  18
TORSDOF 5
ENDMDL
