MODEL 1
REMARK VINA RESULT:      -5.7      0.000      0.000
REMARK  0 active torsions:
REMARK  status: ('A' for Active; 'I' for Inactive)
ROOT
HETATM    1  S   UNL     1      63.726   7.867   5.851  1.00  0.00     0.198 S 
HETATM    2  C   UNL     1      63.074   9.161   4.875  1.00  0.00     0.074 A 
HETATM    3  C   UNL     1      63.731   6.756   4.517  1.00  0.00     0.122 A 
HETATM    4  C   UNL     1      62.879   8.718   3.566  1.00  0.00    -0.006 A 
HETATM    5  C   UNL     1      63.270   7.312   3.381  1.00  0.00    -0.039 A 
HETATM    6  O   UNL     1      62.717   7.486   6.817  1.00  0.00    -0.218 OA
HETATM    7  O   UNL     1      65.079   8.221   6.218  1.00  0.00    -0.218 OA
HETATM    8  C   UNL     1      62.787  10.441   5.314  1.00  0.00     0.026 A 
HETATM    9  C   UNL     1      62.365   9.611   2.634  1.00  0.00     0.037 A 
HETATM   10  C   UNL     1      62.064  10.916   3.047  1.00  0.00     0.035 A 
HETATM   11  C   UNL     1      62.272  11.333   4.374  1.00  0.00     0.025 A 
HETATM   12 CL   UNL     1      61.426  12.037   1.905  1.00  0.00    -0.084 Cl
HETATM   13  C   UNL     1      63.152   6.616   2.070  1.00  0.00     0.050 C 
ENDROOT
TORSDOF 0
ENDMDL
MODEL 2
REMARK VINA RESULT:      -4.8      3.453      4.750
REMARK  0 active torsions:
REMARK  status: ('A' for Active; 'I' for Inactive)
ROOT
HETATM    1  S   UNL     1      61.801   8.696   2.419  1.00  0.00     0.198 S 
HETATM    2  C   UNL     1      63.200   8.035   3.229  1.00  0.00     0.074 A 
HETATM    3  C   UNL     1      61.700  10.038   3.515  1.00  0.00     0.122 A 
HETATM    4  C   UNL     1      63.555   8.848   4.307  1.00  0.00    -0.006 A 
HETATM    5  C   UNL     1      62.665  10.010   4.454  1.00  0.00    -0.039 A 
HETATM    6  O   UNL     1      60.693   7.788   2.632  1.00  0.00    -0.218 OA
HETATM    7  O   UNL     1      62.213   9.145   1.107  1.00  0.00    -0.218 OA
HETATM    8  C   UNL     1      63.873   6.880   2.872  1.00  0.00     0.026 A 
HETATM    9  C   UNL     1      64.652   8.485   5.077  1.00  0.00     0.037 A 
HETATM   10  C   UNL     1      65.355   7.320   4.742  1.00  0.00     0.035 A 
HETATM   11  C   UNL     1      64.974   6.522   3.649  1.00  0.00     0.025 A 
HETATM   12 CL   UNL     1      66.719   6.856   5.687  1.00  0.00    -0.084 Cl
HETATM   13  C   UNL     1      62.843  11.021   5.533  1.00  0.00     0.050 C 
ENDROOT
TORSDOF 0
ENDMDL
MODEL 3
REMARK VINA RESULT:      -4.4      3.071      3.924
REMARK  0 active torsions:
REMARK  status: ('A' for Active; 'I' for Inactive)
ROOT
HETATM    1  S   UNL     1      65.913   5.944   7.552  1.00  0.00     0.198 S 
HETATM    2  C   UNL     1      64.861   6.869   6.509  1.00  0.00     0.074 A 
HETATM    3  C   UNL     1      67.343   6.515   6.750  1.00  0.00     0.122 A 
HETATM    4  C   UNL     1      65.619   7.587   5.583  1.00  0.00    -0.006 A 
HETATM    5  C   UNL     1      67.064   7.364   5.743  1.00  0.00    -0.039 A 
HETATM    6  O   UNL     1      65.703   4.540   7.265  1.00  0.00    -0.218 OA
HETATM    7  O   UNL     1      65.826   6.500   8.884  1.00  0.00    -0.218 OA
HETATM    8  C   UNL     1      63.479   6.901   6.575  1.00  0.00     0.026 A 
HETATM    9  C   UNL     1      64.955   8.388   4.663  1.00  0.00     0.037 A 
HETATM   10  C   UNL     1      63.555   8.442   4.703  1.00  0.00     0.035 A 
HETATM   11  C   UNL     1      62.819   7.708   5.649  1.00  0.00     0.025 A 
HETATM   12 CL   UNL     1      62.716   9.432   3.570  1.00  0.00    -0.084 Cl
HETATM   13  C   UNL     1      68.075   8.021   4.868  1.00  0.00     0.050 C 
ENDROOT
TORSDOF 0
ENDMDL
MODEL 4
REMARK VINA RESULT:      -4.4      2.682      3.529
REMARK  0 active torsions:
REMARK  status: ('A' for Active; 'I' for Inactive)
ROOT
HETATM    1  S   UNL     1      63.024   5.697   2.382  1.00  0.00     0.198 S 
HETATM    2  C   UNL     1      62.642   7.380   2.112  1.00  0.00     0.074 A 
HETATM    3  C   UNL     1      63.184   5.924   4.095  1.00  0.00     0.122 A 
HETATM    4  C   UNL     1      62.644   8.068   3.326  1.00  0.00    -0.006 A 
HETATM    5  C   UNL     1      62.963   7.199   4.468  1.00  0.00    -0.039 A 
HETATM    6  O   UNL     1      64.317   5.433   1.787  1.00  0.00    -0.218 OA
HETATM    7  O   UNL     1      61.843   4.916   2.084  1.00  0.00    -0.218 OA
HETATM    8  C   UNL     1      62.372   7.964   0.887  1.00  0.00     0.026 A 
HETATM    9  C   UNL     1      62.358   9.428   3.316  1.00  0.00     0.037 A 
HETATM   10  C   UNL     1      62.081  10.049   2.091  1.00  0.00     0.035 A 
HETATM   11  C   UNL     1      62.086   9.328   0.885  1.00  0.00     0.025 A 
HETATM   12 CL   UNL     1      61.725  11.735   2.061  1.00  0.00    -0.084 Cl
HETATM   13  C   UNL     1      63.026   7.708   5.866  1.00  0.00     0.050 C 
ENDROOT
TORSDOF 0
ENDMDL
MODEL 5
REMARK VINA RESULT:      -4.3      2.167      2.895
REMARK  0 active torsions:
REMARK  status: ('A' for Active; 'I' for Inactive)
ROOT
HETATM    1  S   UNL     1      62.125   6.001   6.010  1.00  0.00     0.198 S 
HETATM    2  C   UNL     1      61.900   7.171   4.733  1.00  0.00     0.074 A 
HETATM    3  C   UNL     1      63.731   6.563   6.352  1.00  0.00     0.122 A 
HETATM    4  C   UNL     1      63.046   7.957   4.600  1.00  0.00    -0.006 A 
HETATM    5  C   UNL     1      64.101   7.583   5.555  1.00  0.00    -0.039 A 
HETATM    6  O   UNL     1      62.170   4.686   5.407  1.00  0.00    -0.218 OA
HETATM    7  O   UNL     1      61.230   6.343   7.094  1.00  0.00    -0.218 OA
HETATM    8  C   UNL     1      60.763   7.316   3.958  1.00  0.00     0.026 A 
HETATM    9  C   UNL     1      63.058   8.951   3.631  1.00  0.00     0.037 A 
HETATM   10  C   UNL     1      61.922   9.124   2.828  1.00  0.00     0.035 A 
HETATM   11  C   UNL     1      60.782   8.317   2.987  1.00  0.00     0.025 A 
HETATM   12 CL   UNL     1      61.920  10.353   1.621  1.00  0.00    -0.084 Cl
HETATM   13  C   UNL     1      65.417   8.277   5.603  1.00  0.00     0.050 C 
ENDROOT
TORSDOF 0
ENDMDL
MODEL 6
REMARK VINA RESULT:      -4.2      2.477      3.693
REMARK  0 active torsions:
REMARK  status: ('A' for Active; 'I' for Inactive)
ROOT
HETATM    1  S   UNL     1      63.429   7.736   5.595  1.00  0.00     0.198 S 
HETATM    2  C   UNL     1      62.100   7.208   4.591  1.00  0.00     0.074 A 
HETATM    3  C   UNL     1      63.308   9.373   5.032  1.00  0.00     0.122 A 
HETATM    4  C   UNL     1      61.600   8.285   3.858  1.00  0.00    -0.006 A 
HETATM    5  C   UNL     1      62.321   9.537   4.132  1.00  0.00    -0.039 A 
HETATM    6  O   UNL     1      64.639   7.119   5.093  1.00  0.00    -0.218 OA
HETATM    7  O   UNL     1      63.010   7.645   6.977  1.00  0.00    -0.218 OA
HETATM    8  C   UNL     1      61.601   5.919   4.519  1.00  0.00     0.026 A 
HETATM    9  C   UNL     1      60.533   8.062   2.997  1.00  0.00     0.037 A 
HETATM   10  C   UNL     1      60.004   6.767   2.902  1.00  0.00     0.035 A 
HETATM   11  C   UNL     1      60.529   5.703   3.654  1.00  0.00     0.025 A 
HETATM   12 CL   UNL     1      58.680   6.473   1.839  1.00  0.00    -0.084 Cl
HETATM   13  C   UNL     1      61.970  10.823   3.467  1.00  0.00     0.050 C 
ENDROOT
TORSDOF 0
ENDMDL
MODEL 7
REMARK VINA RESULT:      -4.2      3.729      4.509
REMARK  0 active torsions:
REMARK  status: ('A' for Active; 'I' for Inactive)
ROOT
HETATM    1  S   UNL     1      61.966   8.939   3.456  1.00  0.00     0.198 S 
HETATM    2  C   UNL     1      63.132   8.281   4.578  1.00  0.00     0.074 A 
HETATM    3  C   UNL     1      60.784   7.732   3.852  1.00  0.00     0.122 A 
HETATM    4  C   UNL     1      62.594   7.166   5.224  1.00  0.00    -0.006 A 
HETATM    5  C   UNL     1      61.224   6.865   4.784  1.00  0.00    -0.039 A 
HETATM    6  O   UNL     1      62.471   8.727   2.115  1.00  0.00    -0.218 OA
HETATM    7  O   UNL     1      61.551  10.234   3.949  1.00  0.00    -0.218 OA
HETATM    8  C   UNL     1      64.403   8.776   4.810  1.00  0.00     0.026 A 
HETATM    9  C   UNL     1      63.376   6.503   6.161  1.00  0.00     0.037 A 
HETATM   10  C   UNL     1      64.669   6.980   6.418  1.00  0.00     0.035 A 
HETATM   11  C   UNL     1      65.182   8.106   5.752  1.00  0.00     0.025 A 
HETATM   12 CL   UNL     1      65.652   6.169   7.578  1.00  0.00    -0.084 Cl
HETATM   13  C   UNL     1      60.443   5.721   5.330  1.00  0.00     0.050 C 
ENDROOT
TORSDOF 0
ENDMDL
MODEL 8
REMARK VINA RESULT:      -4.2      6.443      6.808
REMARK  0 active torsions:
REMARK  status: ('A' for Active; 'I' for Inactive)
ROOT
HETATM    1  S   UNL     1      58.501   5.997   8.689  1.00  0.00     0.198 S 
HETATM    2  C   UNL     1      57.413   6.082   7.326  1.00  0.00     0.074 A 
HETATM    3  C   UNL     1      59.900   5.893   7.668  1.00  0.00     0.122 A 
HETATM    4  C   UNL     1      58.138   6.030   6.134  1.00  0.00    -0.006 A 
HETATM    5  C   UNL     1      59.587   5.920   6.359  1.00  0.00    -0.039 A 
HETATM    6  O   UNL     1      58.274   4.735   9.362  1.00  0.00    -0.218 OA
HETATM    7  O   UNL     1      58.467   7.273   9.370  1.00  0.00    -0.218 OA
HETATM    8  C   UNL     1      56.035   6.186   7.394  1.00  0.00     0.026 A 
HETATM    9  C   UNL     1      57.442   6.087   4.933  1.00  0.00     0.037 A 
HETATM   10  C   UNL     1      56.045   6.193   4.968  1.00  0.00     0.035 A 
HETATM   11  C   UNL     1      55.343   6.243   6.185  1.00  0.00     0.025 A 
HETATM   12 CL   UNL     1      55.167   6.264   3.487  1.00  0.00    -0.084 Cl
HETATM   13  C   UNL     1      60.566   5.847   5.239  1.00  0.00     0.050 C 
ENDROOT
TORSDOF 0
ENDMDL
MODEL 9
REMARK VINA RESULT:      -4.1      3.424      4.106
REMARK  0 active torsions:
REMARK  status: ('A' for Active; 'I' for Inactive)
ROOT
HETATM    1  S   UNL     1      61.769   8.257   1.959  1.00  0.00     0.198 S 
HETATM    2  C   UNL     1      62.948   8.340   3.245  1.00  0.00     0.074 A 
HETATM    3  C   UNL     1      62.437   6.783   1.332  1.00  0.00     0.122 A 
HETATM    4  C   UNL     1      63.815   7.249   3.166  1.00  0.00    -0.006 A 
HETATM    5  C   UNL     1      63.498   6.355   2.043  1.00  0.00    -0.039 A 
HETATM    6  O   UNL     1      62.026   9.353   1.047  1.00  0.00    -0.218 OA
HETATM    7  O   UNL     1      60.473   8.012   2.554  1.00  0.00    -0.218 OA
HETATM    8  C   UNL     1      63.028   9.330   4.208  1.00  0.00     0.026 A 
HETATM    9  C   UNL     1      64.827   7.139   4.111  1.00  0.00     0.037 A 
HETATM   10  C   UNL     1      64.935   8.126   5.101  1.00  0.00     0.035 A 
HETATM   11  C   UNL     1      64.045   9.213   5.154  1.00  0.00     0.025 A 
HETATM   12 CL   UNL     1      66.185   8.004   6.281  1.00  0.00    -0.084 Cl
HETATM   13  C   UNL     1      64.285   5.124   1.755  1.00  0.00     0.050 C 
ENDROOT
TORSDOF 0
ENDMDL
