MODEL 1
REMARK VINA RESULT:      -6.0      0.000      0.000
REMARK  3 active torsions:
REMARK  status: ('A' for Active; 'I' for Inactive)
REMARK    1  A    between atoms: C_1  and  C_4 
REMARK    2  A    between atoms: C_2  and  C_9 
REMARK    3  A    between atoms: C_3  and  C_11 
ROOT
HETATM    1  C   UNL     1      62.151   9.879   3.961  1.00  0.00     0.057 A 
HETATM    2  N   UNL     1      61.220   7.652   3.762  1.00  0.00    -0.373 N 
ATOM      3  HN  UNL     1      60.502   7.021   3.406  1.00  0.00     0.164 HD
HETATM    4  C   UNL     1      63.197   9.389   4.749  1.00  0.00     0.041 A 
HETATM    5  C   UNL     1      63.249   8.026   5.035  1.00  0.00     0.034 A 
HETATM    6  C   UNL     1      61.199   8.981   3.494  1.00  0.00     0.106 A 
HETATM    7  C   UNL     1      62.246   7.207   4.528  1.00  0.00     0.108 A 
ENDROOT
BRANCH   5   8
HETATM    8  C   UNL     1      64.309   7.468   5.814  1.00  0.00    -0.060 C 
HETATM    9  C   UNL     1      65.161   6.952   6.485  1.00  0.00    -0.061 C 
BRANCH   9  10
HETATM   10  C   UNL     1      66.128   6.293   7.308  1.00  0.00     0.018 A 
HETATM   11  C   UNL     1      66.562   6.902   8.490  1.00  0.00     0.020 A 
HETATM   12  C   UNL     1      67.535   6.287   9.277  1.00  0.00     0.001 A 
HETATM   13  C   UNL     1      68.074   5.061   8.889  1.00  0.00     0.000 A 
HETATM   14  C   UNL     1      67.634   4.446   7.716  1.00  0.00     0.001 A 
HETATM   15  C   UNL     1      66.661   5.061   6.926  1.00  0.00     0.020 A 
ENDBRANCH   9  10
ENDBRANCH   5   8
BRANCH   1  16
HETATM   16  C   UNL     1      62.011  11.300   3.596  1.00  0.00     0.210 C 
HETATM   17  O   UNL     1      61.929  11.738   2.463  1.00  0.00    -0.644 OA
HETATM   18  O   UNL     1      61.980  12.110   4.667  1.00  0.00    -0.644 OA
ENDBRANCH   1  16
TORSDOF 3
ENDMDL
MODEL 2
REMARK VINA RESULT:      -5.8      4.472      7.816
REMARK  3 active torsions:
REMARK  status: ('A' for Active; 'I' for Inactive)
REMARK    1  A    between atoms: C_1  and  C_4 
REMARK    2  A    between atoms: C_2  and  C_9 
REMARK    3  A    between atoms: C_3  and  C_11 
ROOT
HETATM    1  C   UNL     1      66.902   4.643   7.862  1.00  0.00     0.057 A 
HETATM    2  N   UNL     1      67.755   6.727   8.754  1.00  0.00    -0.373 N 
ATOM      3  HN  UNL     1      68.371   7.231   9.392  1.00  0.00     0.164 HD
HETATM    4  C   UNL     1      66.053   5.342   6.997  1.00  0.00     0.041 A 
HETATM    5  C   UNL     1      66.066   6.736   7.015  1.00  0.00     0.034 A 
HETATM    6  C   UNL     1      67.727   5.373   8.710  1.00  0.00     0.106 A 
HETATM    7  C   UNL     1      66.922   7.376   7.905  1.00  0.00     0.108 A 
ENDROOT
BRANCH   5   8
HETATM    8  C   UNL     1      65.237   7.499   6.135  1.00  0.00    -0.060 C 
HETATM    9  C   UNL     1      64.503   8.151   5.446  1.00  0.00    -0.061 C 
BRANCH   9  10
HETATM   10  C   UNL     1      63.582   8.930   4.676  1.00  0.00     0.018 A 
HETATM   11  C   UNL     1      63.137   8.453   3.439  1.00  0.00     0.020 A 
HETATM   12  C   UNL     1      62.271   9.225   2.662  1.00  0.00     0.001 A 
HETATM   13  C   UNL     1      61.845  10.470   3.122  1.00  0.00     0.000 A 
HETATM   14  C   UNL     1      62.279  10.943   4.361  1.00  0.00     0.001 A 
HETATM   15  C   UNL     1      63.146  10.173   5.139  1.00  0.00     0.020 A 
ENDBRANCH   9  10
ENDBRANCH   5   8
BRANCH   1  16
HETATM   16  C   UNL     1      66.970   3.173   7.915  1.00  0.00     0.210 C 
HETATM   17  O   UNL     1      66.776   2.417   6.981  1.00  0.00    -0.644 OA
HETATM   18  O   UNL     1      67.278   2.711   9.139  1.00  0.00    -0.644 OA
ENDBRANCH   1  16
TORSDOF 3
ENDMDL
MODEL 3
REMARK VINA RESULT:      -5.8      4.532      7.770
REMARK  3 active torsions:
REMARK  status: ('A' for Active; 'I' for Inactive)
REMARK    1  A    between atoms: C_1  and  C_4 
REMARK    2  A    between atoms: C_2  and  C_9 
REMARK    3  A    between atoms: C_3  and  C_11 
ROOT
HETATM    1  C   UNL     1      67.034   4.536   7.913  1.00  0.00     0.057 A 
HETATM    2  N   UNL     1      67.712   6.675   8.825  1.00  0.00    -0.373 N 
ATOM      3  HN  UNL     1      68.279   7.221   9.473  1.00  0.00     0.164 HD
HETATM    4  C   UNL     1      66.143   5.172   7.042  1.00  0.00     0.041 A 
HETATM    5  C   UNL     1      66.047   6.562   7.066  1.00  0.00     0.034 A 
HETATM    6  C   UNL     1      67.790   5.323   8.774  1.00  0.00     0.106 A 
HETATM    7  C   UNL     1      66.840   7.262   7.970  1.00  0.00     0.108 A 
ENDROOT
BRANCH   5   8
HETATM    8  C   UNL     1      65.171   7.264   6.181  1.00  0.00    -0.060 C 
HETATM    9  C   UNL     1      64.453   7.908   5.467  1.00  0.00    -0.061 C 
BRANCH   9  10
HETATM   10  C   UNL     1      63.608   8.729   4.655  1.00  0.00     0.018 A 
HETATM   11  C   UNL     1      63.152   9.955   5.149  1.00  0.00     0.020 A 
HETATM   12  C   UNL     1      62.294  10.743   4.382  1.00  0.00     0.001 A 
HETATM   13  C   UNL     1      61.894  10.311   3.118  1.00  0.00     0.000 A 
HETATM   14  C   UNL     1      62.357   9.093   2.619  1.00  0.00     0.001 A 
HETATM   15  C   UNL     1      63.214   8.302   3.386  1.00  0.00     0.020 A 
ENDBRANCH   9  10
ENDBRANCH   5   8
BRANCH   1  16
HETATM   16  C   UNL     1      67.216   3.075   7.958  1.00  0.00     0.210 C 
HETATM   17  O   UNL     1      67.304   2.338   6.994  1.00  0.00    -0.644 OA
HETATM   18  O   UNL     1      67.279   2.600   9.213  1.00  0.00    -0.644 OA
ENDBRANCH   1  16
TORSDOF 3
ENDMDL
MODEL 4
REMARK VINA RESULT:      -5.6      1.861      2.174
REMARK  3 active torsions:
REMARK  status: ('A' for Active; 'I' for Inactive)
REMARK    1  A    between atoms: C_1  and  C_4 
REMARK    2  A    between atoms: C_2  and  C_9 
REMARK    3  A    between atoms: C_3  and  C_11 
ROOT
HETATM    1  C   UNL     1      62.422   9.150   2.953  1.00  0.00     0.057 A 
HETATM    2  N   UNL     1      62.450  10.830   4.698  1.00  0.00    -0.373 N 
ATOM      3  HN  UNL     1      62.122  11.717   5.078  1.00  0.00     0.164 HD
HETATM    4  C   UNL     1      63.361   8.384   3.652  1.00  0.00     0.041 A 
HETATM    5  C   UNL     1      63.836   8.848   4.878  1.00  0.00     0.034 A 
HETATM    6  C   UNL     1      62.000  10.350   3.512  1.00  0.00     0.106 A 
HETATM    7  C   UNL     1      63.359  10.066   5.352  1.00  0.00     0.108 A 
ENDROOT
BRANCH   5   8
HETATM    8  C   UNL     1      64.777   8.094   5.646  1.00  0.00    -0.060 C 
HETATM    9  C   UNL     1      65.526   7.413   6.290  1.00  0.00    -0.061 C 
BRANCH   9  10
HETATM   10  C   UNL     1      66.368   6.555   7.066  1.00  0.00     0.018 A 
HETATM   11  C   UNL     1      66.712   6.917   8.371  1.00  0.00     0.020 A 
HETATM   12  C   UNL     1      67.566   6.108   9.121  1.00  0.00     0.001 A 
HETATM   13  C   UNL     1      68.075   4.933   8.569  1.00  0.00     0.000 A 
HETATM   14  C   UNL     1      67.723   4.563   7.270  1.00  0.00     0.001 A 
HETATM   15  C   UNL     1      66.870   5.372   6.518  1.00  0.00     0.020 A 
ENDBRANCH   9  10
ENDBRANCH   5   8
BRANCH   1  16
HETATM   16  C   UNL     1      61.853   8.744   1.657  1.00  0.00     0.210 C 
HETATM   17  O   UNL     1      62.214   9.143   0.565  1.00  0.00    -0.644 OA
HETATM   18  O   UNL     1      60.853   7.856   1.784  1.00  0.00    -0.644 OA
ENDBRANCH   1  16
TORSDOF 3
ENDMDL
MODEL 5
REMARK VINA RESULT:      -5.5      5.199      7.542
REMARK  3 active torsions:
REMARK  status: ('A' for Active; 'I' for Inactive)
REMARK    1  A    between atoms: C_1  and  C_4 
REMARK    2  A    between atoms: C_2  and  C_9 
REMARK    3  A    between atoms: C_3  and  C_11 
ROOT
HETATM    1  C   UNL     1      59.707   4.861   8.047  1.00  0.00     0.057 A 
HETATM    2  N   UNL     1      61.257   3.383   6.915  1.00  0.00    -0.373 N 
ATOM      3  HN  UNL     1      61.718   2.477   6.834  1.00  0.00     0.164 HD
HETATM    4  C   UNL     1      59.992   5.883   7.136  1.00  0.00     0.041 A 
HETATM    5  C   UNL     1      60.908   5.644   6.113  1.00  0.00     0.034 A 
HETATM    6  C   UNL     1      60.356   3.641   7.895  1.00  0.00     0.106 A 
HETATM    7  C   UNL     1      61.512   4.393   6.048  1.00  0.00     0.108 A 
ENDROOT
BRANCH   5   8
HETATM    8  C   UNL     1      61.217   6.645   5.141  1.00  0.00    -0.060 C 
HETATM    9  C   UNL     1      61.433   7.524   4.352  1.00  0.00    -0.061 C 
BRANCH   9  10
HETATM   10  C   UNL     1      61.634   8.604   3.435  1.00  0.00     0.018 A 
HETATM   11  C   UNL     1      61.806   8.334   2.074  1.00  0.00     0.020 A 
HETATM   12  C   UNL     1      62.045   9.377   1.179  1.00  0.00     0.001 A 
HETATM   13  C   UNL     1      62.107  10.691   1.640  1.00  0.00     0.000 A 
HETATM   14  C   UNL     1      61.924  10.964   2.996  1.00  0.00     0.001 A 
HETATM   15  C   UNL     1      61.686   9.921   3.894  1.00  0.00     0.020 A 
ENDBRANCH   9  10
ENDBRANCH   5   8
BRANCH   1  16
HETATM   16  C   UNL     1      58.750   5.010   9.156  1.00  0.00     0.210 C 
HETATM   17  O   UNL     1      58.124   4.108   9.682  1.00  0.00    -0.644 OA
HETATM   18  O   UNL     1      58.617   6.284   9.559  1.00  0.00    -0.644 OA
ENDBRANCH   1  16
TORSDOF 3
ENDMDL
MODEL 6
REMARK VINA RESULT:      -5.0      4.125      7.595
REMARK  3 active torsions:
REMARK  status: ('A' for Active; 'I' for Inactive)
REMARK    1  A    between atoms: C_1  and  C_4 
REMARK    2  A    between atoms: C_2  and  C_9 
REMARK    3  A    between atoms: C_3  and  C_11 
ROOT
HETATM    1  C   UNL     1      66.250   6.000   7.408  1.00  0.00     0.057 A 
HETATM    2  N   UNL     1      66.949   8.301   7.120  1.00  0.00    -0.373 N 
ATOM      3  HN  UNL     1      67.558   9.079   7.372  1.00  0.00     0.164 HD
HETATM    4  C   UNL     1      65.265   6.159   6.428  1.00  0.00     0.041 A 
HETATM    5  C   UNL     1      65.132   7.394   5.795  1.00  0.00     0.034 A 
HETATM    6  C   UNL     1      67.060   7.087   7.714  1.00  0.00     0.106 A 
HETATM    7  C   UNL     1      65.985   8.425   6.175  1.00  0.00     0.108 A 
ENDROOT
BRANCH   5   8
HETATM    8  C   UNL     1      64.159   7.605   4.770  1.00  0.00    -0.060 C 
HETATM    9  C   UNL     1      63.368   7.734   3.876  1.00  0.00    -0.061 C 
BRANCH   9  10
HETATM   10  C   UNL     1      62.464   7.844   2.773  1.00  0.00     0.018 A 
HETATM   11  C   UNL     1      62.450   9.011   2.003  1.00  0.00     0.020 A 
HETATM   12  C   UNL     1      61.542   9.145   0.952  1.00  0.00     0.001 A 
HETATM   13  C   UNL     1      60.651   8.112   0.665  1.00  0.00     0.000 A 
HETATM   14  C   UNL     1      60.671   6.942   1.425  1.00  0.00     0.001 A 
HETATM   15  C   UNL     1      61.577   6.807   2.479  1.00  0.00     0.020 A 
ENDBRANCH   9  10
ENDBRANCH   5   8
BRANCH   1  16
HETATM   16  C   UNL     1      66.477   4.735   8.128  1.00  0.00     0.210 C 
HETATM   17  O   UNL     1      65.824   3.716   7.999  1.00  0.00    -0.644 OA
HETATM   18  O   UNL     1      67.513   4.802   8.980  1.00  0.00    -0.644 OA
ENDBRANCH   1  16
TORSDOF 3
ENDMDL
MODEL 7
REMARK VINA RESULT:      -4.8      7.882      8.411
REMARK  3 active torsions:
REMARK  status: ('A' for Active; 'I' for Inactive)
REMARK    1  A    between atoms: C_1  and  C_4 
REMARK    2  A    between atoms: C_2  and  C_9 
REMARK    3  A    between atoms: C_3  and  C_11 
ROOT
HETATM    1  C   UNL     1      59.903   5.721   6.806  1.00  0.00     0.057 A 
HETATM    2  N   UNL     1      57.486   5.846   6.719  1.00  0.00    -0.373 N 
ATOM      3  HN  UNL     1      56.632   6.177   6.271  1.00  0.00     0.164 HD
HETATM    4  C   UNL     1      59.838   4.936   7.961  1.00  0.00     0.041 A 
HETATM    5  C   UNL     1      58.589   4.607   8.487  1.00  0.00     0.034 A 
HETATM    6  C   UNL     1      58.713   6.145   6.226  1.00  0.00     0.106 A 
HETATM    7  C   UNL     1      57.455   5.084   7.840  1.00  0.00     0.108 A 
ENDROOT
BRANCH   5   8
HETATM    8  C   UNL     1      58.464   3.787   9.651  1.00  0.00    -0.060 C 
HETATM    9  C   UNL     1      58.340   3.151  10.661  1.00  0.00    -0.061 C 
BRANCH   9  10
HETATM   10  C   UNL     1      58.183   2.451  11.899  1.00  0.00     0.018 A 
HETATM   11  C   UNL     1      56.913   2.336  12.474  1.00  0.00     0.020 A 
HETATM   12  C   UNL     1      56.757   1.692  13.702  1.00  0.00     0.001 A 
HETATM   13  C   UNL     1      57.866   1.158  14.355  1.00  0.00     0.000 A 
HETATM   14  C   UNL     1      59.133   1.261  13.777  1.00  0.00     0.001 A 
HETATM   15  C   UNL     1      59.291   1.907  12.549  1.00  0.00     0.020 A 
ENDBRANCH   9  10
ENDBRANCH   5   8
BRANCH   1  16
HETATM   16  C   UNL     1      61.171   6.116   6.168  1.00  0.00     0.210 C 
HETATM   17  O   UNL     1      61.576   5.726   5.088  1.00  0.00    -0.644 OA
HETATM   18  O   UNL     1      61.877   6.984   6.911  1.00  0.00    -0.644 OA
ENDBRANCH   1  16
TORSDOF 3
ENDMDL
MODEL 8
REMARK VINA RESULT:      -4.8      4.164      5.245
REMARK  3 active torsions:
REMARK  status: ('A' for Active; 'I' for Inactive)
REMARK    1  A    between atoms: C_1  and  C_4 
REMARK    2  A    between atoms: C_2  and  C_9 
REMARK    3  A    between atoms: C_3  and  C_11 
ROOT
HETATM    1  C   UNL     1      59.218   5.865   7.535  1.00  0.00     0.057 A 
HETATM    2  N   UNL     1      58.783   5.754   5.155  1.00  0.00    -0.373 N 
ATOM      3  HN  UNL     1      58.133   5.638   4.378  1.00  0.00     0.164 HD
HETATM    4  C   UNL     1      60.580   6.069   7.293  1.00  0.00     0.041 A 
HETATM    5  C   UNL     1      61.035   6.118   5.977  1.00  0.00     0.034 A 
HETATM    6  C   UNL     1      58.368   5.718   6.445  1.00  0.00     0.106 A 
HETATM    7  C   UNL     1      60.109   5.952   4.953  1.00  0.00     0.108 A 
ENDROOT
BRANCH   5   8
HETATM    8  C   UNL     1      62.412   6.348   5.673  1.00  0.00    -0.060 C 
HETATM    9  C   UNL     1      63.571   6.583   5.465  1.00  0.00    -0.061 C 
BRANCH   9  10
HETATM   10  C   UNL     1      64.947   6.917   5.261  1.00  0.00     0.018 A 
HETATM   11  C   UNL     1      65.616   6.437   4.131  1.00  0.00     0.020 A 
HETATM   12  C   UNL     1      66.970   6.723   3.945  1.00  0.00     0.001 A 
HETATM   13  C   UNL     1      67.655   7.491   4.885  1.00  0.00     0.000 A 
HETATM   14  C   UNL     1      66.986   7.981   6.008  1.00  0.00     0.001 A 
HETATM   15  C   UNL     1      65.633   7.695   6.196  1.00  0.00     0.020 A 
ENDBRANCH   9  10
ENDBRANCH   5   8
BRANCH   1  16
HETATM   16  C   UNL     1      58.636   5.806   8.887  1.00  0.00     0.210 C 
HETATM   17  O   UNL     1      58.405   4.791   9.518  1.00  0.00    -0.644 OA
HETATM   18  O   UNL     1      58.370   7.022   9.391  1.00  0.00    -0.644 OA
ENDBRANCH   1  16
TORSDOF 3
ENDMDL
MODEL 9
REMARK VINA RESULT:      -4.6      8.113      8.609
REMARK  3 active torsions:
REMARK  status: ('A' for Active; 'I' for Inactive)
REMARK    1  A    between atoms: C_1  and  C_4 
REMARK    2  A    between atoms: C_2  and  C_9 
REMARK    3  A    between atoms: C_3  and  C_11 
ROOT
HETATM    1  C   UNL     1      58.085   6.025   6.795  1.00  0.00     0.057 A 
HETATM    2  N   UNL     1      60.326   5.104   6.791  1.00  0.00    -0.373 N 
ATOM      3  HN  UNL     1      61.253   5.032   6.372  1.00  0.00     0.164 HD
HETATM    4  C   UNL     1      57.770   5.296   7.946  1.00  0.00     0.041 A 
HETATM    5  C   UNL     1      58.742   4.475   8.516  1.00  0.00     0.034 A 
HETATM    6  C   UNL     1      59.363   5.899   6.262  1.00  0.00     0.106 A 
HETATM    7  C   UNL     1      59.990   4.410   7.906  1.00  0.00     0.108 A 
ENDROOT
BRANCH   5   8
HETATM    8  C   UNL     1      58.481   3.728   9.706  1.00  0.00    -0.060 C 
HETATM    9  C   UNL     1      58.313   3.127  10.731  1.00  0.00    -0.061 C 
BRANCH   9  10
HETATM   10  C   UNL     1      58.174   2.434  11.975  1.00  0.00     0.018 A 
HETATM   11  C   UNL     1      59.307   1.916  12.610  1.00  0.00     0.020 A 
HETATM   12  C   UNL     1      59.176   1.202  13.801  1.00  0.00     0.001 A 
HETATM   13  C   UNL     1      57.915   1.007  14.363  1.00  0.00     0.000 A 
HETATM   14  C   UNL     1      56.784   1.533  13.737  1.00  0.00     0.001 A 
HETATM   15  C   UNL     1      56.913   2.247  12.543  1.00  0.00     0.020 A 
ENDBRANCH   9  10
ENDBRANCH   5   8
BRANCH   1  16
HETATM   16  C   UNL     1      57.133   6.924   6.121  1.00  0.00     0.210 C 
HETATM   17  O   UNL     1      56.933   6.980   4.922  1.00  0.00    -0.644 OA
HETATM   18  O   UNL     1      56.472   7.717   6.981  1.00  0.00    -0.644 OA
ENDBRANCH   1  16
TORSDOF 3
ENDMDL
