MODEL 1
REMARK VINA RESULT:      -6.0      0.000      0.000
REMARK  7 active torsions:
REMARK  status: ('A' for Active; 'I' for Inactive)
REMARK    1  A    between atoms: N_1  and  C_5 
REMARK    2  A    between atoms: N_4  and  C_6 
REMARK    3  A    between atoms: C_5  and  C_11 
REMARK    4  A    between atoms: C_6  and  C_13 
REMARK    5  A    between atoms: C_11  and  C_15 
REMARK    6  A    between atoms: C_12  and  O_14 
REMARK    7  A    between atoms: O_14  and  C_15 
ROOT
HETATM    1  N   UNL     1      63.889   7.441   4.997  1.00  0.00    -0.067 N 
HETATM    2  C   UNL     1      66.358   7.879   5.598  1.00  0.00     0.059 C 
HETATM    3  C   UNL     1      65.207   5.834   6.496  1.00  0.00     0.059 C 
HETATM    4  C   UNL     1      64.993   8.405   5.139  1.00  0.00     0.237 C 
HETATM    5  C   UNL     1      63.863   6.431   6.059  1.00  0.00     0.237 C 
HETATM    6  C   UNL     1      66.344   6.836   6.722  1.00  0.00     0.124 C 
HETATM    7  H   UNL     1      64.021   6.920   4.129  1.00  0.00     0.280 HD
ENDROOT
BRANCH   1   8
HETATM    8  C   UNL     1      62.609   8.217   4.980  1.00  0.00     0.273 C 
BRANCH   8   9
HETATM    9  C   UNL     1      62.423   9.267   3.896  1.00  0.00    -0.033 A 
HETATM   10  C   UNL     1      62.356   8.894   2.540  1.00  0.00     0.009 A 
HETATM   11  C   UNL     1      62.055   9.823   1.539  1.00  0.00     0.001 A 
HETATM   12  C   UNL     1      61.821  11.150   1.885  1.00  0.00     0.000 A 
HETATM   13  C   UNL     1      61.876  11.537   3.221  1.00  0.00     0.001 A 
HETATM   14  C   UNL     1      62.179  10.607   4.224  1.00  0.00     0.009 A 
ENDBRANCH   8   9
ENDBRANCH   1   8
BRANCH   6  15
HETATM   15  O   UNL     1      66.375   7.444   8.049  1.00  0.00    -0.385 OA
BRANCH  15  16
HETATM   16  C   UNL     1      66.788   6.509   9.084  1.00  0.00     0.181 C 
BRANCH  16  17
HETATM   17  C   UNL     1      68.071   5.667   8.766  1.00  0.00     0.130 C 
BRANCH  17  18
HETATM   18  C   UNL     1      67.700   4.200   8.906  1.00  0.00    -0.076 C 
BRANCH  18  19
HETATM   19  N   UNL     1      67.392   2.982   9.022  1.00  0.00    -0.370 N 
ATOM     20  HN2 UNL     1      67.623   3.969   8.914  1.00  0.00     0.165 HD
ATOM     21  HN1 UNL     1      67.143   1.998   9.116  1.00  0.00     0.165 HD
ENDBRANCH  18  19
ENDBRANCH  17  18
ENDBRANCH  16  17
ENDBRANCH  15  16
ENDBRANCH   6  15
TORSDOF 7
ENDMDL
MODEL 2
REMARK VINA RESULT:      -5.7      1.925      2.851
REMARK  7 active torsions:
REMARK  status: ('A' for Active; 'I' for Inactive)
REMARK    1  A    between atoms: N_1  and  C_5 
REMARK    2  A    between atoms: N_4  and  C_6 
REMARK    3  A    between atoms: C_5  and  C_11 
REMARK    4  A    between atoms: C_6  and  C_13 
REMARK    5  A    between atoms: C_11  and  C_15 
REMARK    6  A    between atoms: C_12  and  O_14 
REMARK    7  A    between atoms: O_14  and  C_15 
ROOT
HETATM    1  N   UNL     1      64.300   7.806   5.755  1.00  0.00    -0.067 N 
HETATM    2  C   UNL     1      65.527   6.370   7.512  1.00  0.00     0.059 C 
HETATM    3  C   UNL     1      66.677   8.374   6.526  1.00  0.00     0.059 C 
HETATM    4  C   UNL     1      64.438   6.509   6.441  1.00  0.00     0.237 C 
HETATM    5  C   UNL     1      65.586   8.437   5.448  1.00  0.00     0.237 C 
HETATM    6  C   UNL     1      66.883   7.010   7.192  1.00  0.00     0.124 C 
HETATM    7  H   UNL     1      63.820   8.455   6.380  1.00  0.00     0.280 HD
ENDROOT
BRANCH   1   8
HETATM    8  C   UNL     1      63.517   7.574   4.501  1.00  0.00     0.273 C 
BRANCH   8   9
HETATM    9  C   UNL     1      62.831   8.767   3.854  1.00  0.00    -0.033 A 
HETATM   10  C   UNL     1      62.593   9.943   4.590  1.00  0.00     0.009 A 
HETATM   11  C   UNL     1      62.085  11.096   3.984  1.00  0.00     0.001 A 
HETATM   12  C   UNL     1      61.799  11.085   2.622  1.00  0.00     0.000 A 
HETATM   13  C   UNL     1      62.034   9.933   1.876  1.00  0.00     0.001 A 
HETATM   14  C   UNL     1      62.542   8.777   2.483  1.00  0.00     0.009 A 
ENDBRANCH   8   9
ENDBRANCH   1   8
BRANCH   6  15
HETATM   15  O   UNL     1      67.775   6.103   6.477  1.00  0.00    -0.385 OA
BRANCH  15  16
HETATM   16  C   UNL     1      67.512   4.705   6.780  1.00  0.00     0.181 C 
BRANCH  16  17
HETATM   17  C   UNL     1      67.281   3.772   5.542  1.00  0.00     0.130 C 
BRANCH  17  18
HETATM   18  C   UNL     1      67.269   4.652   4.303  1.00  0.00    -0.076 C 
BRANCH  18  19
HETATM   19  N   UNL     1      67.259   5.383   3.274  1.00  0.00    -0.370 N 
ATOM     20  HN2 UNL     1      67.268   4.774   4.092  1.00  0.00     0.165 HD
ATOM     21  HN1 UNL     1      67.251   5.973   2.443  1.00  0.00     0.165 HD
ENDBRANCH  18  19
ENDBRANCH  17  18
ENDBRANCH  16  17
ENDBRANCH  15  16
ENDBRANCH   6  15
TORSDOF 7
ENDMDL
MODEL 3
REMARK VINA RESULT:      -5.6      1.241      1.855
REMARK  7 active torsions:
REMARK  status: ('A' for Active; 'I' for Inactive)
REMARK    1  A    between atoms: N_1  and  C_5 
REMARK    2  A    between atoms: N_4  and  C_6 
REMARK    3  A    between atoms: C_5  and  C_11 
REMARK    4  A    between atoms: C_6  and  C_13 
REMARK    5  A    between atoms: C_11  and  C_15 
REMARK    6  A    between atoms: C_12  and  O_14 
REMARK    7  A    between atoms: O_14  and  C_15 
ROOT
HETATM    1  N   UNL     1      64.351   7.995   5.794  1.00  0.00    -0.067 N 
HETATM    2  C   UNL     1      65.538   6.522   7.547  1.00  0.00     0.059 C 
HETATM    3  C   UNL     1      66.900   8.020   6.058  1.00  0.00     0.059 C 
HETATM    4  C   UNL     1      64.320   6.803   6.660  1.00  0.00     0.237 C 
HETATM    5  C   UNL     1      65.660   8.227   5.177  1.00  0.00     0.237 C 
HETATM    6  C   UNL     1      66.914   6.744   6.906  1.00  0.00     0.124 C 
HETATM    7  H   UNL     1      64.169   8.819   6.367  1.00  0.00     0.280 HD
ENDROOT
BRANCH   1   8
HETATM    8  C   UNL     1      63.301   7.818   4.742  1.00  0.00     0.273 C 
BRANCH   8   9
HETATM    9  C   UNL     1      62.830   9.050   3.986  1.00  0.00    -0.033 A 
HETATM   10  C   UNL     1      62.448   8.960   2.634  1.00  0.00     0.009 A 
HETATM   11  C   UNL     1      61.889  10.047   1.957  1.00  0.00     0.001 A 
HETATM   12  C   UNL     1      61.709  11.253   2.627  1.00  0.00     0.000 A 
HETATM   13  C   UNL     1      62.075  11.361   3.967  1.00  0.00     0.001 A 
HETATM   14  C   UNL     1      62.637  10.271   4.646  1.00  0.00     0.009 A 
ENDBRANCH   8   9
ENDBRANCH   1   8
BRANCH   6  15
HETATM   15  O   UNL     1      67.410   5.554   6.222  1.00  0.00    -0.385 OA
BRANCH  15  16
HETATM   16  C   UNL     1      68.075   4.626   7.122  1.00  0.00     0.181 C 
BRANCH  16  17
HETATM   17  C   UNL     1      67.639   3.126   6.998  1.00  0.00     0.130 C 
BRANCH  17  18
HETATM   18  C   UNL     1      67.506   2.571   8.406  1.00  0.00    -0.076 C 
BRANCH  18  19
HETATM   19  N   UNL     1      67.395   2.109   9.575  1.00  0.00    -0.370 N 
ATOM     20  HN2 UNL     1      67.507   2.477   8.630  1.00  0.00     0.165 HD
ATOM     21  HN1 UNL     1      67.305   1.736  10.520  1.00  0.00     0.165 HD
ENDBRANCH  18  19
ENDBRANCH  17  18
ENDBRANCH  16  17
ENDBRANCH  15  16
ENDBRANCH   6  15
TORSDOF 7
ENDMDL
MODEL 4
REMARK VINA RESULT:      -5.5      2.357      7.617
REMARK  7 active torsions:
REMARK  status: ('A' for Active; 'I' for Inactive)
REMARK    1  A    between atoms: N_1  and  C_5 
REMARK    2  A    between atoms: N_4  and  C_6 
REMARK    3  A    between atoms: C_5  and  C_11 
REMARK    4  A    between atoms: C_6  and  C_13 
REMARK    5  A    between atoms: C_11  and  C_15 
REMARK    6  A    between atoms: C_12  and  O_14 
REMARK    7  A    between atoms: O_14  and  C_15 
ROOT
HETATM    1  N   UNL     1      64.795   8.063   6.186  1.00  0.00    -0.067 N 
HETATM    2  C   UNL     1      62.882   9.191   4.874  1.00  0.00     0.059 C 
HETATM    3  C   UNL     1      62.637   6.803   5.617  1.00  0.00     0.059 C 
HETATM    4  C   UNL     1      64.365   9.123   5.258  1.00  0.00     0.237 C 
HETATM    5  C   UNL     1      64.137   6.776   5.938  1.00  0.00     0.237 C 
HETATM    6  C   UNL     1      62.189   7.852   4.593  1.00  0.00     0.124 C 
HETATM    7  H   UNL     1      64.524   8.329   7.134  1.00  0.00     0.280 HD
ENDROOT
BRANCH   1   8
HETATM    8  C   UNL     1      66.280   7.925   6.061  1.00  0.00     0.273 C 
BRANCH   8   9
HETATM    9  C   UNL     1      66.977   6.879   6.916  1.00  0.00    -0.033 A 
HETATM   10  C   UNL     1      66.939   6.961   8.321  1.00  0.00     0.009 A 
HETATM   11  C   UNL     1      67.459   5.944   9.128  1.00  0.00     0.001 A 
HETATM   12  C   UNL     1      68.034   4.824   8.534  1.00  0.00     0.000 A 
HETATM   13  C   UNL     1      68.075   4.722   7.146  1.00  0.00     0.001 A 
HETATM   14  C   UNL     1      67.555   5.742   6.337  1.00  0.00     0.009 A 
ENDBRANCH   8   9
ENDBRANCH   1   8
BRANCH   6  15
HETATM   15  O   UNL     1      62.309   7.442   3.198  1.00  0.00    -0.385 OA
BRANCH  15  16
HETATM   16  C   UNL     1      61.358   8.120   2.331  1.00  0.00     0.181 C 
BRANCH  16  17
HETATM   17  C   UNL     1      61.981   9.045   1.230  1.00  0.00     0.130 C 
BRANCH  17  18
HETATM   18  C   UNL     1      61.830  10.482   1.701  1.00  0.00    -0.076 C 
BRANCH  18  19
HETATM   19  N   UNL     1      61.705  11.675   2.093  1.00  0.00    -0.370 N 
ATOM     20  HN2 UNL     1      61.817  10.705   1.796  1.00  0.00     0.165 HD
ATOM     21  HN1 UNL     1      61.604  12.639   2.409  1.00  0.00     0.165 HD
ENDBRANCH  18  19
ENDBRANCH  17  18
ENDBRANCH  16  17
ENDBRANCH  15  16
ENDBRANCH   6  15
TORSDOF 7
ENDMDL
MODEL 5
REMARK VINA RESULT:      -5.3      1.298      1.822
REMARK  7 active torsions:
REMARK  status: ('A' for Active; 'I' for Inactive)
REMARK    1  A    between atoms: N_1  and  C_5 
REMARK    2  A    between atoms: N_4  and  C_6 
REMARK    3  A    between atoms: C_5  and  C_11 
REMARK    4  A    between atoms: C_6  and  C_13 
REMARK    5  A    between atoms: C_11  and  C_15 
REMARK    6  A    between atoms: C_12  and  O_14 
REMARK    7  A    between atoms: O_14  and  C_15 
ROOT
HETATM    1  N   UNL     1      65.170   7.769   4.439  1.00  0.00    -0.067 N 
HETATM    2  C   UNL     1      66.937   8.030   6.299  1.00  0.00     0.059 C 
HETATM    3  C   UNL     1      67.288   6.326   4.486  1.00  0.00     0.059 C 
HETATM    4  C   UNL     1      65.497   8.210   5.806  1.00  0.00     0.237 C 
HETATM    5  C   UNL     1      65.823   6.511   4.066  1.00  0.00     0.237 C 
HETATM    6  C   UNL     1      67.624   6.709   5.931  1.00  0.00     0.124 C 
HETATM    7  H   UNL     1      65.521   8.465   3.779  1.00  0.00     0.280 HD
ENDROOT
BRANCH   1   8
HETATM    8  C   UNL     1      63.682   7.633   4.350  1.00  0.00     0.273 C 
BRANCH   8   9
HETATM    9  C   UNL     1      62.911   8.696   3.583  1.00  0.00    -0.033 A 
HETATM   10  C   UNL     1      62.635   9.945   4.170  1.00  0.00     0.009 A 
HETATM   11  C   UNL     1      62.044  10.982   3.442  1.00  0.00     0.001 A 
HETATM   12  C   UNL     1      61.712  10.779   2.106  1.00  0.00     0.000 A 
HETATM   13  C   UNL     1      61.983   9.552   1.506  1.00  0.00     0.001 A 
HETATM   14  C   UNL     1      62.574   8.512   2.236  1.00  0.00     0.009 A 
ENDBRANCH   8   9
ENDBRANCH   1   8
BRANCH   6  15
HETATM   15  O   UNL     1      67.385   5.661   6.918  1.00  0.00    -0.385 OA
BRANCH  15  16
HETATM   16  C   UNL     1      67.827   6.037   8.252  1.00  0.00     0.181 C 
BRANCH  16  17
HETATM   17  C   UNL     1      68.075   4.851   9.246  1.00  0.00     0.130 C 
BRANCH  17  18
HETATM   18  C   UNL     1      67.758   3.562   8.506  1.00  0.00    -0.076 C 
BRANCH  18  19
HETATM   19  N   UNL     1      67.496   2.491   7.892  1.00  0.00    -0.370 N 
ATOM     20  HN2 UNL     1      67.721   3.363   8.371  1.00  0.00     0.165 HD
ATOM     21  HN1 UNL     1      67.283   1.626   7.396  1.00  0.00     0.165 HD
ENDBRANCH  18  19
ENDBRANCH  17  18
ENDBRANCH  16  17
ENDBRANCH  15  16
ENDBRANCH   6  15
TORSDOF 7
ENDMDL
MODEL 6
REMARK VINA RESULT:      -5.3      1.733      2.586
REMARK  7 active torsions:
REMARK  status: ('A' for Active; 'I' for Inactive)
REMARK    1  A    between atoms: N_1  and  C_5 
REMARK    2  A    between atoms: N_4  and  C_6 
REMARK    3  A    between atoms: C_5  and  C_11 
REMARK    4  A    between atoms: C_6  and  C_13 
REMARK    5  A    between atoms: C_11  and  C_15 
REMARK    6  A    between atoms: C_12  and  O_14 
REMARK    7  A    between atoms: O_14  and  C_15 
ROOT
HETATM    1  N   UNL     1      64.169   7.934   5.797  1.00  0.00    -0.067 N 
HETATM    2  C   UNL     1      65.358   6.485   7.568  1.00  0.00     0.059 C 
HETATM    3  C   UNL     1      66.690   8.133   6.217  1.00  0.00     0.059 C 
HETATM    4  C   UNL     1      64.176   6.711   6.618  1.00  0.00     0.237 C 
HETATM    5  C   UNL     1      65.492   8.284   5.270  1.00  0.00     0.237 C 
HETATM    6  C   UNL     1      66.749   6.829   7.021  1.00  0.00     0.124 C 
HETATM    7  H   UNL     1      63.894   8.721   6.386  1.00  0.00     0.280 HD
ENDROOT
BRANCH   1   8
HETATM    8  C   UNL     1      63.199   7.723   4.678  1.00  0.00     0.273 C 
BRANCH   8   9
HETATM    9  C   UNL     1      62.789   8.929   3.848  1.00  0.00    -0.033 A 
HETATM   10  C   UNL     1      62.531   8.798   2.470  1.00  0.00     0.009 A 
HETATM   11  C   UNL     1      62.028   9.862   1.715  1.00  0.00     0.001 A 
HETATM   12  C   UNL     1      61.779  11.084   2.333  1.00  0.00     0.000 A 
HETATM   13  C   UNL     1      62.022  11.231   3.696  1.00  0.00     0.001 A 
HETATM   14  C   UNL     1      62.528  10.166   4.453  1.00  0.00     0.009 A 
ENDBRANCH   8   9
ENDBRANCH   1   8
BRANCH   6  15
HETATM   15  O   UNL     1      67.370   5.705   6.327  1.00  0.00    -0.385 OA
BRANCH  15  16
HETATM   16  C   UNL     1      67.568   5.962   4.909  1.00  0.00     0.181 C 
BRANCH  16  17
HETATM   17  C   UNL     1      66.977   4.887   3.935  1.00  0.00     0.130 C 
BRANCH  17  18
HETATM   18  C   UNL     1      65.932   4.097   4.705  1.00  0.00    -0.076 C 
BRANCH  18  19
HETATM   19  N   UNL     1      65.064   3.441   5.345  1.00  0.00    -0.370 N 
ATOM     20  HN2 UNL     1      65.753   3.969   4.809  1.00  0.00     0.165 HD
ATOM     21  HN1 UNL     1      64.363   2.911   5.862  1.00  0.00     0.165 HD
ENDBRANCH  18  19
ENDBRANCH  17  18
ENDBRANCH  16  17
ENDBRANCH  15  16
ENDBRANCH   6  15
TORSDOF 7
ENDMDL
MODEL 7
REMARK VINA RESULT:      -4.9      2.693      7.119
REMARK  7 active torsions:
REMARK  status: ('A' for Active; 'I' for Inactive)
REMARK    1  A    between atoms: N_1  and  C_5 
REMARK    2  A    between atoms: N_4  and  C_6 
REMARK    3  A    between atoms: C_5  and  C_11 
REMARK    4  A    between atoms: C_6  and  C_13 
REMARK    5  A    between atoms: C_11  and  C_15 
REMARK    6  A    between atoms: C_12  and  O_14 
REMARK    7  A    between atoms: O_14  and  C_15 
ROOT
HETATM    1  N   UNL     1      64.824   7.731   6.274  1.00  0.00    -0.067 N 
HETATM    2  C   UNL     1      63.312   9.127   4.719  1.00  0.00     0.059 C 
HETATM    3  C   UNL     1      62.563   6.844   5.456  1.00  0.00     0.059 C 
HETATM    4  C   UNL     1      64.702   8.817   5.286  1.00  0.00     0.237 C 
HETATM    5  C   UNL     1      63.985   6.570   5.963  1.00  0.00     0.237 C 
HETATM    6  C   UNL     1      62.433   7.919   4.372  1.00  0.00     0.124 C 
HETATM    7  H   UNL     1      64.492   8.073   7.177  1.00  0.00     0.280 HD
ENDROOT
BRANCH   1   8
HETATM    8  C   UNL     1      66.266   7.335   6.337  1.00  0.00     0.273 C 
BRANCH   8   9
HETATM    9  C   UNL     1      66.737   6.205   5.436  1.00  0.00    -0.033 A 
HETATM   10  C   UNL     1      67.134   4.969   5.982  1.00  0.00     0.009 A 
HETATM   11  C   UNL     1      67.445   3.875   5.170  1.00  0.00     0.001 A 
HETATM   12  C   UNL     1      67.369   4.005   3.786  1.00  0.00     0.000 A 
HETATM   13  C   UNL     1      66.973   5.218   3.227  1.00  0.00     0.001 A 
HETATM   14  C   UNL     1      66.662   6.315   4.041  1.00  0.00     0.009 A 
ENDBRANCH   8   9
ENDBRANCH   1   8
BRANCH   6  15
HETATM   15  O   UNL     1      62.646   7.446   3.007  1.00  0.00    -0.385 OA
BRANCH  15  16
HETATM   16  C   UNL     1      61.615   7.904   2.089  1.00  0.00     0.181 C 
BRANCH  16  17
HETATM   17  C   UNL     1      62.071   8.964   1.028  1.00  0.00     0.130 C 
BRANCH  17  18
HETATM   18  C   UNL     1      61.813  10.340   1.619  1.00  0.00    -0.076 C 
BRANCH  18  19
HETATM   19  N   UNL     1      61.599  11.483   2.108  1.00  0.00    -0.370 N 
ATOM     20  HN2 UNL     1      61.765  10.550   1.732  1.00  0.00     0.165 HD
ATOM     21  HN1 UNL     1      61.425  12.407   2.504  1.00  0.00     0.165 HD
ENDBRANCH  18  19
ENDBRANCH  17  18
ENDBRANCH  16  17
ENDBRANCH  15  16
ENDBRANCH   6  15
TORSDOF 7
ENDMDL
MODEL 8
REMARK VINA RESULT:      -4.7      5.468      6.926
REMARK  7 active torsions:
REMARK  status: ('A' for Active; 'I' for Inactive)
REMARK    1  A    between atoms: N_1  and  C_5 
REMARK    2  A    between atoms: N_4  and  C_6 
REMARK    3  A    between atoms: C_5  and  C_11 
REMARK    4  A    between atoms: C_6  and  C_13 
REMARK    5  A    between atoms: C_11  and  C_15 
REMARK    6  A    between atoms: C_12  and  O_14 
REMARK    7  A    between atoms: O_14  and  C_15 
ROOT
HETATM    1  N   UNL     1      59.542   6.575   3.745  1.00  0.00    -0.067 N 
HETATM    2  C   UNL     1      58.200   4.460   4.359  1.00  0.00     0.059 C 
HETATM    3  C   UNL     1      57.022   6.674   4.203  1.00  0.00     0.059 C 
HETATM    4  C   UNL     1      59.539   5.203   4.284  1.00  0.00     0.237 C 
HETATM    5  C   UNL     1      58.390   7.370   4.180  1.00  0.00     0.237 C 
HETATM    6  C   UNL     1      56.992   5.277   4.832  1.00  0.00     0.124 C 
HETATM    7  H   UNL     1      59.470   6.525   2.728  1.00  0.00     0.280 HD
ENDROOT
BRANCH   1   8
HETATM    8  C   UNL     1      60.820   7.226   4.172  1.00  0.00     0.273 C 
BRANCH   8   9
HETATM    9  C   UNL     1      61.341   8.391   3.345  1.00  0.00    -0.033 A 
HETATM   10  C   UNL     1      61.477   8.275   1.949  1.00  0.00     0.009 A 
HETATM   11  C   UNL     1      61.828   9.370   1.154  1.00  0.00     0.001 A 
HETATM   12  C   UNL     1      62.057  10.606   1.753  1.00  0.00     0.000 A 
HETATM   13  C   UNL     1      61.921  10.742   3.132  1.00  0.00     0.001 A 
HETATM   14  C   UNL     1      61.571   9.644   3.929  1.00  0.00     0.009 A 
ENDBRANCH   8   9
ENDBRANCH   1   8
BRANCH   6  15
HETATM   15  O   UNL     1      56.837   5.257   6.283  1.00  0.00    -0.385 OA
BRANCH  15  16
HETATM   16  C   UNL     1      56.195   6.459   6.794  1.00  0.00     0.181 C 
BRANCH  16  17
HETATM   17  C   UNL     1      56.960   7.202   7.942  1.00  0.00     0.130 C 
BRANCH  17  18
HETATM   18  C   UNL     1      58.329   6.555   8.073  1.00  0.00    -0.076 C 
BRANCH  18  19
HETATM   19  N   UNL     1      59.465   6.017   8.182  1.00  0.00    -0.370 N 
ATOM     20  HN2 UNL     1      58.551   6.456   8.072  1.00  0.00     0.165 HD
ATOM     21  HN1 UNL     1      60.383   5.583   8.270  1.00  0.00     0.165 HD
ENDBRANCH  18  19
ENDBRANCH  17  18
ENDBRANCH  16  17
ENDBRANCH  15  16
ENDBRANCH   6  15
TORSDOF 7
ENDMDL
MODEL 9
REMARK VINA RESULT:      -4.6      2.539      7.761
REMARK  7 active torsions:
REMARK  status: ('A' for Active; 'I' for Inactive)
REMARK    1  A    between atoms: N_1  and  C_5 
REMARK    2  A    between atoms: N_4  and  C_6 
REMARK    3  A    between atoms: C_5  and  C_11 
REMARK    4  A    between atoms: C_6  and  C_13 
REMARK    5  A    between atoms: C_11  and  C_15 
REMARK    6  A    between atoms: C_12  and  O_14 
REMARK    7  A    between atoms: O_14  and  C_15 
ROOT
HETATM    1  N   UNL     1      64.675   6.657   5.424  1.00  0.00    -0.067 N 
HETATM    2  C   UNL     1      64.291   6.350   2.892  1.00  0.00     0.059 C 
HETATM    3  C   UNL     1      63.555   8.477   4.009  1.00  0.00     0.059 C 
HETATM    4  C   UNL     1      64.525   5.741   4.279  1.00  0.00     0.237 C 
HETATM    5  C   UNL     1      63.761   7.801   5.372  1.00  0.00     0.237 C 
HETATM    6  C   UNL     1      63.321   7.536   2.823  1.00  0.00     0.124 C 
HETATM    7  H   UNL     1      65.614   7.056   5.400  1.00  0.00     0.280 HD
ENDROOT
BRANCH   1   8
HETATM    8  C   UNL     1      64.450   5.862   6.672  1.00  0.00     0.273 C 
BRANCH   8   9
HETATM    9  C   UNL     1      65.668   5.363   7.433  1.00  0.00    -0.033 A 
HETATM   10  C   UNL     1      66.423   4.280   6.945  1.00  0.00     0.009 A 
HETATM   11  C   UNL     1      67.618   3.887   7.554  1.00  0.00     0.001 A 
HETATM   12  C   UNL     1      68.075   4.575   8.674  1.00  0.00     0.000 A 
HETATM   13  C   UNL     1      67.345   5.653   9.168  1.00  0.00     0.001 A 
HETATM   14  C   UNL     1      66.146   6.046   8.558  1.00  0.00     0.009 A 
ENDBRANCH   8   9
ENDBRANCH   1   8
BRANCH   6  15
HETATM   15  O   UNL     1      61.936   7.116   2.634  1.00  0.00    -0.385 OA
BRANCH  15  16
HETATM   16  C   UNL     1      61.092   8.183   2.121  1.00  0.00     0.181 C 
BRANCH  16  17
HETATM   17  C   UNL     1      61.785   9.183   1.133  1.00  0.00     0.130 C 
BRANCH  17  18
HETATM   18  C   UNL     1      61.724  10.564   1.764  1.00  0.00    -0.076 C 
BRANCH  18  19
HETATM   19  N   UNL     1      61.674  11.711   2.289  1.00  0.00    -0.370 N 
ATOM     20  HN2 UNL     1      61.737  10.787   1.862  1.00  0.00     0.165 HD
ATOM     21  HN1 UNL     1      61.633  12.638   2.713  1.00  0.00     0.165 HD
ENDBRANCH  18  19
ENDBRANCH  17  18
ENDBRANCH  16  17
ENDBRANCH  15  16
ENDBRANCH   6  15
TORSDOF 7
ENDMDL
