MODEL 1
REMARK VINA RESULT:      -4.0      0.000      0.000
REMARK  2 active torsions:
REMARK  status: ('A' for Active; 'I' for Inactive)
REMARK    1  A    between atoms: O_2  and  C_6 
REMARK    2  A    between atoms: C_5  and  C_6 
ROOT
HETATM    1  N   UNL     1      61.272   9.879   2.051  1.00  0.00    -0.075 N 
HETATM    2  C   UNL     1      61.760  11.252   2.154  1.00  0.00     0.232 C 
HETATM    3  C   UNL     1      62.209   8.941   2.667  1.00  0.00     0.232 C 
HETATM    4  C   UNL     1      62.848  10.700   4.376  1.00  0.00     0.012 C 
HETATM    5  C   UNL     1      62.396   9.249   4.151  1.00  0.00     0.034 C 
HETATM    6  C   UNL     1      61.931  11.667   3.614  1.00  0.00     0.034 C 
HETATM    7  H   UNL     1      61.161   9.638   1.065  1.00  0.00     0.277 HD
HETATM    8  H   UNL     1      60.379   9.813   2.537  1.00  0.00     0.277 HD
ENDROOT
BRANCH   4   9
HETATM    9  C   UNL     1      62.885  11.063   5.863  1.00  0.00     0.168 C 
BRANCH   9  10
HETATM   10  O   UNL     1      64.189  11.469   6.255  1.00  0.00    -0.400 OA
HETATM   11  H   UNL     1      64.440  11.007   7.071  1.00  0.00     0.209 HD
ENDBRANCH   9  10
ENDBRANCH   4   9
TORSDOF 2
ENDMDL
MODEL 2
REMARK VINA RESULT:      -3.8      1.293      2.149
REMARK  2 active torsions:
REMARK  status: ('A' for Active; 'I' for Inactive)
REMARK    1  A    between atoms: O_2  and  C_6 
REMARK    2  A    between atoms: C_5  and  C_6 
ROOT
HETATM    1  N   UNL     1      62.957   8.476   2.671  1.00  0.00    -0.075 N 
HETATM    2  C   UNL     1      63.511   7.999   3.937  1.00  0.00     0.232 C 
HETATM    3  C   UNL     1      61.742   9.258   2.891  1.00  0.00     0.232 C 
HETATM    4  C   UNL     1      62.676  10.095   5.093  1.00  0.00     0.012 C 
HETATM    5  C   UNL     1      62.027  10.483   3.756  1.00  0.00     0.034 C 
HETATM    6  C   UNL     1      63.874   9.167   4.853  1.00  0.00     0.034 C 
HETATM    7  H   UNL     1      62.735   7.674   2.082  1.00  0.00     0.277 HD
HETATM    8  H   UNL     1      63.649   9.072   2.218  1.00  0.00     0.277 HD
ENDROOT
BRANCH   4   9
HETATM    9  C   UNL     1      63.109  11.324   5.897  1.00  0.00     0.168 C 
BRANCH   9  10
HETATM   10  O   UNL     1      64.481  11.238   6.260  1.00  0.00    -0.400 OA
HETATM   11  H   UNL     1      64.614  11.665   7.121  1.00  0.00     0.209 HD
ENDBRANCH   9  10
ENDBRANCH   4   9
TORSDOF 2
ENDMDL
MODEL 3
REMARK VINA RESULT:      -3.8      2.461      3.240
REMARK  2 active torsions:
REMARK  status: ('A' for Active; 'I' for Inactive)
REMARK    1  A    between atoms: O_2  and  C_6 
REMARK    2  A    between atoms: C_5  and  C_6 
ROOT
HETATM    1  N   UNL     1      63.816   9.574   5.567  1.00  0.00    -0.075 N 
HETATM    2  C   UNL     1      62.824  10.643   5.664  1.00  0.00     0.232 C 
HETATM    3  C   UNL     1      63.300   8.446   4.795  1.00  0.00     0.232 C 
HETATM    4  C   UNL     1      61.951  10.042   3.361  1.00  0.00     0.012 C 
HETATM    5  C   UNL     1      62.946   8.871   3.372  1.00  0.00     0.034 C 
HETATM    6  C   UNL     1      62.445  11.167   4.280  1.00  0.00     0.034 C 
HETATM    7  H   UNL     1      64.053   9.254   6.507  1.00  0.00     0.277 HD
HETATM    8  H   UNL     1      64.642   9.939   5.095  1.00  0.00     0.277 HD
ENDROOT
BRANCH   4   9
HETATM    9  C   UNL     1      61.714  10.577   1.946  1.00  0.00     0.168 C 
BRANCH   9  10
HETATM   10  O   UNL     1      62.098  11.942   1.847  1.00  0.00    -0.400 OA
HETATM   11  H   UNL     1      62.059  12.222   0.919  1.00  0.00     0.209 HD
ENDBRANCH   9  10
ENDBRANCH   4   9
TORSDOF 2
ENDMDL
MODEL 4
REMARK VINA RESULT:      -3.6      1.605      2.450
REMARK  2 active torsions:
REMARK  status: ('A' for Active; 'I' for Inactive)
REMARK    1  A    between atoms: O_2  and  C_6 
REMARK    2  A    between atoms: C_5  and  C_6 
ROOT
HETATM    1  N   UNL     1      62.624   8.323   1.331  1.00  0.00    -0.075 N 
HETATM    2  C   UNL     1      62.683   7.691   2.648  1.00  0.00     0.232 C 
HETATM    3  C   UNL     1      61.601   9.365   1.293  1.00  0.00     0.232 C 
HETATM    4  C   UNL     1      62.044   9.891   3.733  1.00  0.00     0.012 C 
HETATM    5  C   UNL     1      61.896  10.462   2.313  1.00  0.00     0.034 C 
HETATM    6  C   UNL     1      63.025   8.711   3.732  1.00  0.00     0.034 C 
HETATM    7  H   UNL     1      62.404   7.614   0.631  1.00  0.00     0.277 HD
HETATM    8  H   UNL     1      63.529   8.749   1.135  1.00  0.00     0.277 HD
ENDROOT
BRANCH   4   9
HETATM    9  C   UNL     1      62.496  10.958   4.733  1.00  0.00     0.168 C 
BRANCH   9  10
HETATM   10  O   UNL     1      62.061  12.250   4.330  1.00  0.00    -0.400 OA
HETATM   11  H   UNL     1      61.138  12.203   4.036  1.00  0.00     0.209 HD
ENDBRANCH   9  10
ENDBRANCH   4   9
TORSDOF 2
ENDMDL
MODEL 5
REMARK VINA RESULT:      -3.5      1.480      1.900
REMARK  2 active torsions:
REMARK  status: ('A' for Active; 'I' for Inactive)
REMARK    1  A    between atoms: O_2  and  C_6 
REMARK    2  A    between atoms: C_5  and  C_6 
ROOT
HETATM    1  N   UNL     1      61.605   7.550   3.723  1.00  0.00    -0.075 N 
HETATM    2  C   UNL     1      61.861   8.728   2.897  1.00  0.00     0.232 C 
HETATM    3  C   UNL     1      62.684   7.339   4.686  1.00  0.00     0.232 C 
HETATM    4  C   UNL     1      63.031   9.845   4.848  1.00  0.00     0.012 C 
HETATM    5  C   UNL     1      62.823   8.535   5.625  1.00  0.00     0.034 C 
HETATM    6  C   UNL     1      61.965   9.988   3.753  1.00  0.00     0.034 C 
HETATM    7  H   UNL     1      61.531   6.730   3.120  1.00  0.00     0.277 HD
HETATM    8  H   UNL     1      60.736   7.696   4.236  1.00  0.00     0.277 HD
ENDROOT
BRANCH   4   9
HETATM    9  C   UNL     1      63.013  11.066   5.772  1.00  0.00     0.168 C 
BRANCH   9  10
HETATM   10  O   UNL     1      64.326  11.394   6.208  1.00  0.00    -0.400 OA
HETATM   11  H   UNL     1      64.490  10.984   7.072  1.00  0.00     0.209 HD
ENDBRANCH   9  10
ENDBRANCH   4   9
TORSDOF 2
ENDMDL
MODEL 6
REMARK VINA RESULT:      -3.5      1.785      2.228
REMARK  2 active torsions:
REMARK  status: ('A' for Active; 'I' for Inactive)
REMARK    1  A    between atoms: O_2  and  C_6 
REMARK    2  A    between atoms: C_5  and  C_6 
ROOT
HETATM    1  N   UNL     1      61.306   9.715   3.336  1.00  0.00    -0.075 N 
HETATM    2  C   UNL     1      62.091  10.674   4.112  1.00  0.00     0.232 C 
HETATM    3  C   UNL     1      62.174   8.796   2.604  1.00  0.00     0.232 C 
HETATM    4  C   UNL     1      63.882   8.917   4.473  1.00  0.00     0.012 C 
HETATM    5  C   UNL     1      63.057   7.997   3.559  1.00  0.00     0.034 C 
HETATM    6  C   UNL     1      62.973   9.961   5.135  1.00  0.00     0.034 C 
HETATM    7  H   UNL     1      60.723  10.224   2.671  1.00  0.00     0.277 HD
HETATM    8  H   UNL     1      60.728   9.174   3.978  1.00  0.00     0.277 HD
ENDROOT
BRANCH   4   9
HETATM    9  C   UNL     1      64.648   8.127   5.538  1.00  0.00     0.168 C 
BRANCH   9  10
HETATM   10  O   UNL     1      65.715   8.898   6.073  1.00  0.00    -0.400 OA
HETATM   11  H   UNL     1      65.452   9.830   6.113  1.00  0.00     0.209 HD
ENDBRANCH   9  10
ENDBRANCH   4   9
TORSDOF 2
ENDMDL
MODEL 7
REMARK VINA RESULT:      -3.5      1.581      1.802
REMARK  2 active torsions:
REMARK  status: ('A' for Active; 'I' for Inactive)
REMARK    1  A    between atoms: O_2  and  C_6 
REMARK    2  A    between atoms: C_5  and  C_6 
ROOT
HETATM    1  N   UNL     1      60.576   8.604   1.567  1.00  0.00    -0.075 N 
HETATM    2  C   UNL     1      61.650   9.509   1.161  1.00  0.00     0.232 C 
HETATM    3  C   UNL     1      60.951   7.845   2.759  1.00  0.00     0.232 C 
HETATM    4  C   UNL     1      62.309   9.817   3.589  1.00  0.00     0.012 C 
HETATM    5  C   UNL     1      61.233   8.776   3.936  1.00  0.00     0.034 C 
HETATM    6  C   UNL     1      61.968  10.515   2.266  1.00  0.00     0.034 C 
HETATM    7  H   UNL     1      60.383   7.953   0.805  1.00  0.00     0.277 HD
HETATM    8  H   UNL     1      59.748   9.158   1.782  1.00  0.00     0.277 HD
ENDROOT
BRANCH   4   9
HETATM    9  C   UNL     1      62.484  10.851   4.706  1.00  0.00     0.168 C 
BRANCH   9  10
HETATM   10  O   UNL     1      62.088  12.144   4.268  1.00  0.00    -0.400 OA
HETATM   11  H   UNL     1      62.747  12.797   4.552  1.00  0.00     0.209 HD
ENDBRANCH   9  10
ENDBRANCH   4   9
TORSDOF 2
ENDMDL
MODEL 8
REMARK VINA RESULT:      -3.4      1.331      2.307
REMARK  2 active torsions:
REMARK  status: ('A' for Active; 'I' for Inactive)
REMARK    1  A    between atoms: O_2  and  C_6 
REMARK    2  A    between atoms: C_5  and  C_6 
ROOT
HETATM    1  N   UNL     1      61.813  10.799   2.517  1.00  0.00    -0.075 N 
HETATM    2  C   UNL     1      61.691   9.353   2.346  1.00  0.00     0.232 C 
HETATM    3  C   UNL     1      61.793  11.165   3.932  1.00  0.00     0.232 C 
HETATM    4  C   UNL     1      62.956   8.990   4.513  1.00  0.00     0.012 C 
HETATM    5  C   UNL     1      62.953  10.517   4.683  1.00  0.00     0.034 C 
HETATM    6  C   UNL     1      62.845   8.620   3.028  1.00  0.00     0.034 C 
HETATM    7  H   UNL     1      61.034  11.257   2.043  1.00  0.00     0.277 HD
HETATM    8  H   UNL     1      62.701  11.100   2.117  1.00  0.00     0.277 HD
ENDROOT
BRANCH   4   9
HETATM    9  C   UNL     1      64.202   8.348   5.129  1.00  0.00     0.168 C 
BRANCH   9  10
HETATM   10  O   UNL     1      65.045   9.333   5.713  1.00  0.00    -0.400 OA
HETATM   11  H   UNL     1      64.769   9.492   6.630  1.00  0.00     0.209 HD
ENDBRANCH   9  10
ENDBRANCH   4   9
TORSDOF 2
ENDMDL
MODEL 9
REMARK VINA RESULT:      -3.3      2.913      4.033
REMARK  2 active torsions:
REMARK  status: ('A' for Active; 'I' for Inactive)
REMARK    1  A    between atoms: O_2  and  C_6 
REMARK    2  A    between atoms: C_5  and  C_6 
ROOT
HETATM    1  N   UNL     1      63.389   9.694   5.746  1.00  0.00    -0.075 N 
HETATM    2  C   UNL     1      64.236   8.849   4.906  1.00  0.00     0.232 C 
HETATM    3  C   UNL     1      62.709  10.712   4.949  1.00  0.00     0.232 C 
HETATM    4  C   UNL     1      62.597   9.107   2.991  1.00  0.00     0.012 C 
HETATM    5  C   UNL     1      61.811  10.073   3.892  1.00  0.00     0.034 C 
HETATM    6  C   UNL     1      63.410   8.125   3.844  1.00  0.00     0.034 C 
HETATM    7  H   UNL     1      63.970  10.154   6.448  1.00  0.00     0.277 HD
HETATM    8  H   UNL     1      62.686   9.107   6.192  1.00  0.00     0.277 HD
ENDROOT
BRANCH   4   9
HETATM    9  C   UNL     1      61.677   8.344   2.033  1.00  0.00     0.168 C 
BRANCH   9  10
HETATM   10  O   UNL     1      60.632   9.182   1.556  1.00  0.00    -0.400 OA
HETATM   11  H   UNL     1      60.646   9.195   0.586  1.00  0.00     0.209 HD
ENDBRANCH   9  10
ENDBRANCH   4   9
TORSDOF 2
ENDMDL
