MODEL 1
REMARK VINA RESULT:      -5.2      0.000      0.000
REMARK  1 active torsions:
REMARK  status: ('A' for Active; 'I' for Inactive)
REMARK    1  A    between atoms: C_9  and  N_10 
ROOT
HETATM    1  C   UNL     1      62.514  10.786   4.647  1.00  0.00     0.294 A 
HETATM    2  C   UNL     1      62.517   9.748   3.626  1.00  0.00     0.050 A 
HETATM    3  O   UNL     1      62.031  11.919   4.050  1.00  0.00    -0.313 OA
HETATM    4  C   UNL     1      62.039  10.280   2.449  1.00  0.00    -0.018 A 
HETATM    5  C   UNL     1      62.938   8.434   3.738  1.00  0.00     0.047 A 
HETATM    6  C   UNL     1      61.715  11.705   2.656  1.00  0.00     0.218 A 
HETATM    7  O   UNL     1      62.862  10.667   5.804  1.00  0.00    -0.259 OA
HETATM    8  C   UNL     1      61.962   9.500   1.313  1.00  0.00     0.012 A 
HETATM    9  C   UNL     1      62.831   7.611   2.615  1.00  0.00     0.026 A 
HETATM   10  C   UNL     1      62.381   8.165   1.400  1.00  0.00     0.029 A 
ENDROOT
BRANCH   9  11
HETATM   11  N   UNL     1      63.386   6.327   2.633  1.00  0.00    -0.399 N 
HETATM   12  H   UNL     1      64.246   6.167   3.084  1.00  0.00     0.156 HD
HETATM   13  H   UNL     1      62.916   5.581   2.193  1.00  0.00     0.156 HD
ENDBRANCH   9  11
TORSDOF 1
ENDMDL
MODEL 2
REMARK VINA RESULT:      -5.1      1.146      2.421
REMARK  1 active torsions:
REMARK  status: ('A' for Active; 'I' for Inactive)
REMARK    1  A    between atoms: C_9  and  N_10 
ROOT
HETATM    1  C   UNL     1      61.800  11.542   2.573  1.00  0.00     0.294 A 
HETATM    2  C   UNL     1      62.097  10.128   2.393  1.00  0.00     0.050 A 
HETATM    3  O   UNL     1      62.005  11.819   3.898  1.00  0.00    -0.313 OA
HETATM    4  C   UNL     1      62.471   9.594   3.607  1.00  0.00    -0.018 A 
HETATM    5  C   UNL     1      62.015   9.374   1.234  1.00  0.00     0.047 A 
HETATM    6  C   UNL     1      62.417  10.647   4.638  1.00  0.00     0.218 A 
HETATM    7  O   UNL     1      61.448  12.325   1.715  1.00  0.00    -0.259 OA
HETATM    8  C   UNL     1      62.785   8.254   3.709  1.00  0.00     0.012 A 
HETATM    9  C   UNL     1      62.368   8.025   1.302  1.00  0.00     0.026 A 
HETATM   10  C   UNL     1      62.711   7.468   2.551  1.00  0.00     0.029 A 
ENDROOT
BRANCH   9  11
HETATM   11  N   UNL     1      62.154   7.189   0.201  1.00  0.00    -0.399 N 
HETATM   12  H   UNL     1      61.312   7.247  -0.305  1.00  0.00     0.156 HD
HETATM   13  H   UNL     1      62.846   6.542  -0.068  1.00  0.00     0.156 HD
ENDBRANCH   9  11
TORSDOF 1
ENDMDL
MODEL 3
REMARK VINA RESULT:      -5.0      1.630      2.299
REMARK  1 active torsions:
REMARK  status: ('A' for Active; 'I' for Inactive)
REMARK    1  A    between atoms: C_9  and  N_10 
ROOT
HETATM    1  C   UNL     1      61.974  11.154   3.524  1.00  0.00     0.294 A 
HETATM    2  C   UNL     1      62.486   9.833   3.861  1.00  0.00     0.050 A 
HETATM    3  O   UNL     1      61.677  11.128   2.188  1.00  0.00    -0.313 OA
HETATM    4  C   UNL     1      62.483   9.052   2.727  1.00  0.00    -0.018 A 
HETATM    5  C   UNL     1      62.942   9.376   5.086  1.00  0.00     0.047 A 
HETATM    6  C   UNL     1      61.977   9.846   1.591  1.00  0.00     0.218 A 
HETATM    7  O   UNL     1      61.831  12.092   4.281  1.00  0.00    -0.259 OA
HETATM    8  C   UNL     1      62.946   7.752   2.776  1.00  0.00     0.012 A 
HETATM    9  C   UNL     1      63.376   8.051   5.173  1.00  0.00     0.026 A 
HETATM   10  C   UNL     1      63.411   7.264   4.004  1.00  0.00     0.029 A 
ENDROOT
BRANCH   9  11
HETATM   11  N   UNL     1      63.989   7.591   6.343  1.00  0.00    -0.399 N 
HETATM   12  H   UNL     1      64.890   7.905   6.584  1.00  0.00     0.156 HD
HETATM   13  H   UNL     1      63.518   6.953   6.927  1.00  0.00     0.156 HD
ENDBRANCH   9  11
TORSDOF 1
ENDMDL
MODEL 4
REMARK VINA RESULT:      -4.9      1.280      1.863
REMARK  1 active torsions:
REMARK  status: ('A' for Active; 'I' for Inactive)
REMARK    1  A    between atoms: C_9  and  N_10 
ROOT
HETATM    1  C   UNL     1      63.367   9.134   5.292  1.00  0.00     0.294 A 
HETATM    2  C   UNL     1      62.880   9.142   3.919  1.00  0.00     0.050 A 
HETATM    3  O   UNL     1      63.089  10.368   5.812  1.00  0.00    -0.313 OA
HETATM    4  C   UNL     1      62.324  10.374   3.652  1.00  0.00    -0.018 A 
HETATM    5  C   UNL     1      62.952   8.131   2.977  1.00  0.00     0.047 A 
HETATM    6  C   UNL     1      62.442  11.229   4.848  1.00  0.00     0.218 A 
HETATM    7  O   UNL     1      63.907   8.210   5.864  1.00  0.00    -0.259 OA
HETATM    8  C   UNL     1      61.806  10.647   2.402  1.00  0.00     0.012 A 
HETATM    9  C   UNL     1      62.397   8.366   1.717  1.00  0.00     0.026 A 
HETATM   10  C   UNL     1      61.865   9.639   1.430  1.00  0.00     0.029 A 
ENDROOT
BRANCH   9  11
HETATM   11  N   UNL     1      62.581   7.438   0.685  1.00  0.00    -0.399 N 
HETATM   12  H   UNL     1      61.870   6.794   0.469  1.00  0.00     0.156 HD
HETATM   13  H   UNL     1      63.424   7.431   0.175  1.00  0.00     0.156 HD
ENDBRANCH   9  11
TORSDOF 1
ENDMDL
MODEL 5
REMARK VINA RESULT:      -4.8      2.929      3.801
REMARK  1 active torsions:
REMARK  status: ('A' for Active; 'I' for Inactive)
REMARK    1  A    between atoms: C_9  and  N_10 
ROOT
HETATM    1  C   UNL     1      63.663   7.468   3.463  1.00  0.00     0.294 A 
HETATM    2  C   UNL     1      63.242   8.792   3.899  1.00  0.00     0.050 A 
HETATM    3  O   UNL     1      63.082   7.256   2.242  1.00  0.00    -0.313 OA
HETATM    4  C   UNL     1      62.424   9.339   2.935  1.00  0.00    -0.018 A 
HETATM    5  C   UNL     1      63.550   9.445   5.080  1.00  0.00     0.047 A 
HETATM    6  C   UNL     1      62.267   8.376   1.828  1.00  0.00     0.218 A 
HETATM    7  O   UNL     1      64.394   6.705   4.061  1.00  0.00    -0.259 OA
HETATM    8  C   UNL     1      61.870  10.590   3.120  1.00  0.00     0.012 A 
HETATM    9  C   UNL     1      63.038  10.730   5.274  1.00  0.00     0.026 A 
HETATM   10  C   UNL     1      62.168  11.273   4.307  1.00  0.00     0.029 A 
ENDROOT
BRANCH   9  11
HETATM   11  N   UNL     1      63.190  11.366   6.511  1.00  0.00    -0.399 N 
HETATM   12  H   UNL     1      62.430  11.420   7.134  1.00  0.00     0.156 HD
HETATM   13  H   UNL     1      64.058  11.758   6.759  1.00  0.00     0.156 HD
ENDBRANCH   9  11
TORSDOF 1
ENDMDL
MODEL 6
REMARK VINA RESULT:      -4.7      1.830      2.847
REMARK  1 active torsions:
REMARK  status: ('A' for Active; 'I' for Inactive)
REMARK    1  A    between atoms: C_9  and  N_10 
ROOT
HETATM    1  C   UNL     1      63.527  10.097   5.398  1.00  0.00     0.294 A 
HETATM    2  C   UNL     1      62.985   9.296   4.309  1.00  0.00     0.050 A 
HETATM    3  O   UNL     1      64.703   9.504   5.770  1.00  0.00    -0.313 OA
HETATM    4  C   UNL     1      63.843   8.248   4.057  1.00  0.00    -0.018 A 
HETATM    5  C   UNL     1      61.800   9.479   3.616  1.00  0.00     0.047 A 
HETATM    6  C   UNL     1      64.983   8.319   4.990  1.00  0.00     0.218 A 
HETATM    7  O   UNL     1      63.037  11.099   5.875  1.00  0.00    -0.259 OA
HETATM    8  C   UNL     1      63.543   7.323   3.077  1.00  0.00     0.012 A 
HETATM    9  C   UNL     1      61.493   8.582   2.591  1.00  0.00     0.026 A 
HETATM   10  C   UNL     1      62.350   7.487   2.359  1.00  0.00     0.029 A 
ENDROOT
BRANCH   9  11
HETATM   11  N   UNL     1      60.241   8.631   1.969  1.00  0.00    -0.399 N 
HETATM   12  H   UNL     1      59.734   7.801   1.815  1.00  0.00     0.156 HD
HETATM   13  H   UNL     1      59.866   9.496   1.686  1.00  0.00     0.156 HD
ENDBRANCH   9  11
TORSDOF 1
ENDMDL
MODEL 7
REMARK VINA RESULT:      -4.5      2.848      4.175
REMARK  1 active torsions:
REMARK  status: ('A' for Active; 'I' for Inactive)
REMARK    1  A    between atoms: C_9  and  N_10 
ROOT
HETATM    1  C   UNL     1      63.393   7.333   3.171  1.00  0.00     0.294 A 
HETATM    2  C   UNL     1      62.922   8.689   3.417  1.00  0.00     0.050 A 
HETATM    3  O   UNL     1      63.938   6.890   4.345  1.00  0.00    -0.313 OA
HETATM    4  C   UNL     1      63.194   9.024   4.726  1.00  0.00    -0.018 A 
HETATM    5  C   UNL     1      62.317   9.563   2.529  1.00  0.00     0.047 A 
HETATM    6  C   UNL     1      63.873   7.892   5.385  1.00  0.00     0.218 A 
HETATM    7  O   UNL     1      63.310   6.714   2.130  1.00  0.00    -0.259 OA
HETATM    8  C   UNL     1      62.864  10.275   5.207  1.00  0.00     0.012 A 
HETATM    9  C   UNL     1      61.934  10.820   3.002  1.00  0.00     0.026 A 
HETATM   10  C   UNL     1      62.250  11.178   4.329  1.00  0.00     0.029 A 
ENDROOT
BRANCH   9  11
HETATM   11  N   UNL     1      61.465  11.790   2.110  1.00  0.00    -0.399 N 
HETATM   12  H   UNL     1      62.052  12.128   1.396  1.00  0.00     0.156 HD
HETATM   13  H   UNL     1      60.547  12.135   2.197  1.00  0.00     0.156 HD
ENDBRANCH   9  11
TORSDOF 1
ENDMDL
MODEL 8
REMARK VINA RESULT:      -4.0      2.887      3.672
REMARK  1 active torsions:
REMARK  status: ('A' for Active; 'I' for Inactive)
REMARK    1  A    between atoms: C_9  and  N_10 
ROOT
HETATM    1  C   UNL     1      62.708   7.298   1.499  1.00  0.00     0.294 A 
HETATM    2  C   UNL     1      62.903   8.111   2.691  1.00  0.00     0.050 A 
HETATM    3  O   UNL     1      61.774   7.943   0.735  1.00  0.00    -0.313 OA
HETATM    4  C   UNL     1      62.085   9.217   2.615  1.00  0.00    -0.018 A 
HETATM    5  C   UNL     1      63.732   7.865   3.773  1.00  0.00     0.047 A 
HETATM    6  C   UNL     1      61.307   9.159   1.362  1.00  0.00     0.218 A 
HETATM    7  O   UNL     1      63.272   6.257   1.230  1.00  0.00    -0.259 OA
HETATM    8  C   UNL     1      62.065  10.140   3.640  1.00  0.00     0.012 A 
HETATM    9  C   UNL     1      63.762   8.805   4.805  1.00  0.00     0.026 A 
HETATM   10  C   UNL     1      62.896   9.915   4.746  1.00  0.00     0.029 A 
ENDROOT
BRANCH   9  11
HETATM   11  N   UNL     1      64.461   8.527   5.985  1.00  0.00    -0.399 N 
HETATM   12  H   UNL     1      64.871   7.642   6.118  1.00  0.00     0.156 HD
HETATM   13  H   UNL     1      64.543   9.217   6.683  1.00  0.00     0.156 HD
ENDBRANCH   9  11
TORSDOF 1
ENDMDL
MODEL 9
REMARK VINA RESULT:      -4.0      1.910      2.974
REMARK  1 active torsions:
REMARK  status: ('A' for Active; 'I' for Inactive)
REMARK    1  A    between atoms: C_9  and  N_10 
ROOT
HETATM    1  C   UNL     1      61.742   9.262   3.094  1.00  0.00     0.294 A 
HETATM    2  C   UNL     1      62.934   8.545   3.525  1.00  0.00     0.050 A 
HETATM    3  O   UNL     1      61.616  10.344   3.922  1.00  0.00    -0.313 OA
HETATM    4  C   UNL     1      63.491   9.210   4.596  1.00  0.00    -0.018 A 
HETATM    5  C   UNL     1      63.464   7.373   3.012  1.00  0.00     0.047 A 
HETATM    6  C   UNL     1      62.666  10.391   4.915  1.00  0.00     0.218 A 
HETATM    7  O   UNL     1      61.009   8.964   2.174  1.00  0.00    -0.259 OA
HETATM    8  C   UNL     1      64.626   8.717   5.207  1.00  0.00     0.012 A 
HETATM    9  C   UNL     1      64.636   6.875   3.585  1.00  0.00     0.026 A 
HETATM   10  C   UNL     1      65.183   7.533   4.706  1.00  0.00     0.029 A 
ENDROOT
BRANCH   9  11
HETATM   11  N   UNL     1      65.121   5.619   3.208  1.00  0.00    -0.399 N 
HETATM   12  H   UNL     1      66.042   5.357   3.437  1.00  0.00     0.156 HD
HETATM   13  H   UNL     1      64.541   4.995   2.714  1.00  0.00     0.156 HD
ENDBRANCH   9  11
TORSDOF 1
ENDMDL
