MODEL 1
REMARK VINA RESULT:      -5.4      0.000      0.000
REMARK  2 active torsions:
REMARK  status: ('A' for Active; 'I' for Inactive)
REMARK    1  A    between atoms: C_1  and  C_2 
REMARK    2  A    between atoms: C_1  and  O_9 
ROOT
HETATM    1  C   UNL     1      62.900   8.854   4.736  1.00  0.00     0.040 A 
HETATM    2  C   UNL     1      62.667   8.506   3.398  1.00  0.00     0.025 A 
HETATM    3  C   UNL     1      62.253   9.471   2.459  1.00  0.00    -0.055 A 
HETATM    4  C   UNL     1      62.052  10.802   2.879  1.00  0.00    -0.056 A 
HETATM    5  C   UNL     1      62.722  10.179   5.139  1.00  0.00     0.018 A 
HETATM    6  C   UNL     1      62.297  11.140   4.221  1.00  0.00     0.008 A 
HETATM    7  C   UNL     1      62.035   9.050   1.031  1.00  0.00     0.049 C 
HETATM    8  C   UNL     1      61.566  11.892   1.964  1.00  0.00     0.049 C 
ENDROOT
BRANCH   1   9
HETATM    9  C   UNL     1      63.340   7.869   5.762  1.00  0.00     0.292 C 
HETATM   10  O   UNL     1      62.746   7.685   6.813  1.00  0.00    -0.259 OA
BRANCH   9  11
HETATM   11  O   UNL     1      64.459   7.216   5.358  1.00  0.00    -0.323 OA
HETATM   12  C   UNL     1      65.687   7.889   5.648  1.00  0.00     0.213 C 
ENDBRANCH   9  11
ENDBRANCH   1   9
TORSDOF 2
ENDMDL
MODEL 2
REMARK VINA RESULT:      -5.0      1.228      2.321
REMARK  2 active torsions:
REMARK  status: ('A' for Active; 'I' for Inactive)
REMARK    1  A    between atoms: C_1  and  C_2 
REMARK    2  A    between atoms: C_1  and  O_9 
ROOT
HETATM    1  C   UNL     1      63.839   8.335   4.843  1.00  0.00     0.040 A 
HETATM    2  C   UNL     1      63.184   9.556   4.629  1.00  0.00     0.025 A 
HETATM    3  C   UNL     1      62.490   9.807   3.429  1.00  0.00    -0.055 A 
HETATM    4  C   UNL     1      62.473   8.821   2.422  1.00  0.00    -0.056 A 
HETATM    5  C   UNL     1      63.796   7.354   3.850  1.00  0.00     0.018 A 
HETATM    6  C   UNL     1      63.126   7.597   2.651  1.00  0.00     0.008 A 
HETATM    7  C   UNL     1      61.788  11.127   3.257  1.00  0.00     0.049 C 
HETATM    8  C   UNL     1      61.801   9.012   1.089  1.00  0.00     0.049 C 
ENDROOT
BRANCH   1   9
HETATM    9  C   UNL     1      64.581   8.026   6.095  1.00  0.00     0.292 C 
HETATM   10  O   UNL     1      64.175   7.243   6.940  1.00  0.00    -0.259 OA
BRANCH   9  11
HETATM   11  O   UNL     1      65.751   8.712   6.147  1.00  0.00    -0.323 OA
HETATM   12  C   UNL     1      66.928   7.901   6.114  1.00  0.00     0.213 C 
ENDBRANCH   9  11
ENDBRANCH   1   9
TORSDOF 2
ENDMDL
MODEL 3
REMARK VINA RESULT:      -4.7      1.454      1.947
REMARK  2 active torsions:
REMARK  status: ('A' for Active; 'I' for Inactive)
REMARK    1  A    between atoms: C_1  and  C_2 
REMARK    2  A    between atoms: C_1  and  O_9 
ROOT
HETATM    1  C   UNL     1      63.699   8.229   4.666  1.00  0.00     0.040 A 
HETATM    2  C   UNL     1      63.750   7.258   3.657  1.00  0.00     0.025 A 
HETATM    3  C   UNL     1      63.087   7.450   2.429  1.00  0.00    -0.055 A 
HETATM    4  C   UNL     1      62.344   8.631   2.224  1.00  0.00    -0.056 A 
HETATM    5  C   UNL     1      62.981   9.407   4.445  1.00  0.00     0.018 A 
HETATM    6  C   UNL     1      62.307   9.602   3.239  1.00  0.00     0.008 A 
HETATM    7  C   UNL     1      63.189   6.385   1.371  1.00  0.00     0.049 C 
HETATM    8  C   UNL     1      61.563   8.907   0.968  1.00  0.00     0.049 C 
ENDROOT
BRANCH   1   9
HETATM    9  C   UNL     1      64.385   8.070   5.977  1.00  0.00     0.292 C 
HETATM   10  O   UNL     1      63.975   7.337   6.864  1.00  0.00    -0.259 OA
BRANCH   9  11
HETATM   11  O   UNL     1      65.510   8.827   6.030  1.00  0.00    -0.323 OA
HETATM   12  C   UNL     1      66.679   8.138   6.484  1.00  0.00     0.213 C 
ENDBRANCH   9  11
ENDBRANCH   1   9
TORSDOF 2
ENDMDL
MODEL 4
REMARK VINA RESULT:      -4.6      1.109      2.677
REMARK  2 active torsions:
REMARK  status: ('A' for Active; 'I' for Inactive)
REMARK    1  A    between atoms: C_1  and  C_2 
REMARK    2  A    between atoms: C_1  and  O_9 
ROOT
HETATM    1  C   UNL     1      63.173   8.039   4.699  1.00  0.00     0.040 A 
HETATM    2  C   UNL     1      62.697   9.321   4.387  1.00  0.00     0.025 A 
HETATM    3  C   UNL     1      62.339   9.661   3.067  1.00  0.00    -0.055 A 
HETATM    4  C   UNL     1      62.482   8.702   2.044  1.00  0.00    -0.056 A 
HETATM    5  C   UNL     1      63.288   7.088   3.684  1.00  0.00     0.018 A 
HETATM    6  C   UNL     1      62.952   7.418   2.371  1.00  0.00     0.008 A 
HETATM    7  C   UNL     1      61.816  11.044   2.789  1.00  0.00     0.049 C 
HETATM    8  C   UNL     1      62.173   8.983   0.599  1.00  0.00     0.049 C 
ENDROOT
BRANCH   1   9
HETATM    9  C   UNL     1      63.560   7.636   6.078  1.00  0.00     0.292 C 
HETATM   10  O   UNL     1      64.715   7.429   6.417  1.00  0.00    -0.259 OA
BRANCH   9  11
HETATM   11  O   UNL     1      62.470   7.548   6.882  1.00  0.00    -0.323 OA
HETATM   12  C   UNL     1      61.597   6.452   6.596  1.00  0.00     0.213 C 
ENDBRANCH   9  11
ENDBRANCH   1   9
TORSDOF 2
ENDMDL
MODEL 5
REMARK VINA RESULT:      -4.6      1.030      1.175
REMARK  2 active torsions:
REMARK  status: ('A' for Active; 'I' for Inactive)
REMARK    1  A    between atoms: C_1  and  C_2 
REMARK    2  A    between atoms: C_1  and  O_9 
ROOT
HETATM    1  C   UNL     1      63.024   8.224   4.178  1.00  0.00     0.040 A 
HETATM    2  C   UNL     1      62.782   8.080   2.805  1.00  0.00     0.025 A 
HETATM    3  C   UNL     1      62.354   9.171   2.024  1.00  0.00    -0.055 A 
HETATM    4  C   UNL     1      62.148  10.422   2.640  1.00  0.00    -0.056 A 
HETATM    5  C   UNL     1      62.840   9.473   4.776  1.00  0.00     0.018 A 
HETATM    6  C   UNL     1      62.402  10.558   4.016  1.00  0.00     0.008 A 
HETATM    7  C   UNL     1      62.128   8.968   0.550  1.00  0.00     0.049 C 
HETATM    8  C   UNL     1      61.648  11.634   1.902  1.00  0.00     0.049 C 
ENDROOT
BRANCH   1   9
HETATM    9  C   UNL     1      63.478   7.100   5.041  1.00  0.00     0.292 C 
HETATM   10  O   UNL     1      63.178   5.934   4.837  1.00  0.00    -0.259 OA
BRANCH   9  11
HETATM   11  O   UNL     1      64.264   7.551   6.051  1.00  0.00    -0.323 OA
HETATM   12  C   UNL     1      64.701   6.546   6.970  1.00  0.00     0.213 C 
ENDBRANCH   9  11
ENDBRANCH   1   9
TORSDOF 2
ENDMDL
MODEL 6
REMARK VINA RESULT:      -4.4      1.885      3.288
REMARK  2 active torsions:
REMARK  status: ('A' for Active; 'I' for Inactive)
REMARK    1  A    between atoms: C_1  and  C_2 
REMARK    2  A    between atoms: C_1  and  O_9 
ROOT
HETATM    1  C   UNL     1      62.776   7.806   2.772  1.00  0.00     0.040 A 
HETATM    2  C   UNL     1      62.778   8.738   3.820  1.00  0.00     0.025 A 
HETATM    3  C   UNL     1      62.394  10.076   3.602  1.00  0.00    -0.055 A 
HETATM    4  C   UNL     1      62.022  10.485   2.305  1.00  0.00    -0.056 A 
HETATM    5  C   UNL     1      62.383   8.214   1.495  1.00  0.00     0.018 A 
HETATM    6  C   UNL     1      62.015   9.540   1.265  1.00  0.00     0.008 A 
HETATM    7  C   UNL     1      62.394  11.031   4.764  1.00  0.00     0.049 C 
HETATM    8  C   UNL     1      61.642  11.900   1.962  1.00  0.00     0.049 C 
ENDROOT
BRANCH   1   9
HETATM    9  C   UNL     1      63.172   6.383   2.956  1.00  0.00     0.292 C 
HETATM   10  O   UNL     1      64.062   5.846   2.314  1.00  0.00    -0.259 OA
BRANCH   9  11
HETATM   11  O   UNL     1      62.426   5.794   3.925  1.00  0.00    -0.323 OA
HETATM   12  C   UNL     1      61.296   5.056   3.452  1.00  0.00     0.213 C 
ENDBRANCH   9  11
ENDBRANCH   1   9
TORSDOF 2
ENDMDL
MODEL 7
REMARK VINA RESULT:      -4.4      1.485      2.764
REMARK  2 active torsions:
REMARK  status: ('A' for Active; 'I' for Inactive)
REMARK    1  A    between atoms: C_1  and  C_2 
REMARK    2  A    between atoms: C_1  and  O_9 
ROOT
HETATM    1  C   UNL     1      64.452   8.102   4.495  1.00  0.00     0.040 A 
HETATM    2  C   UNL     1      63.709   9.285   4.612  1.00  0.00     0.025 A 
HETATM    3  C   UNL     1      62.649   9.567   3.727  1.00  0.00    -0.055 A 
HETATM    4  C   UNL     1      62.347   8.652   2.698  1.00  0.00    -0.056 A 
HETATM    5  C   UNL     1      64.129   7.189   3.488  1.00  0.00     0.018 A 
HETATM    6  C   UNL     1      63.092   7.465   2.597  1.00  0.00     0.008 A 
HETATM    7  C   UNL     1      61.871  10.843   3.907  1.00  0.00     0.049 C 
HETATM    8  C   UNL     1      61.266   8.885   1.677  1.00  0.00     0.049 C 
ENDROOT
BRANCH   1   9
HETATM    9  C   UNL     1      65.577   7.761   5.407  1.00  0.00     0.292 C 
HETATM   10  O   UNL     1      66.447   8.558   5.725  1.00  0.00    -0.259 OA
BRANCH   9  11
HETATM   11  O   UNL     1      65.487   6.475   5.831  1.00  0.00    -0.323 OA
HETATM   12  C   UNL     1      65.213   6.318   7.225  1.00  0.00     0.213 C 
ENDBRANCH   9  11
ENDBRANCH   1   9
TORSDOF 2
ENDMDL
MODEL 8
REMARK VINA RESULT:      -4.4      2.763      4.548
REMARK  2 active torsions:
REMARK  status: ('A' for Active; 'I' for Inactive)
REMARK    1  A    between atoms: C_1  and  C_2 
REMARK    2  A    between atoms: C_1  and  O_9 
ROOT
HETATM    1  C   UNL     1      61.805   9.003   2.061  1.00  0.00     0.040 A 
HETATM    2  C   UNL     1      62.242   8.357   3.226  1.00  0.00     0.025 A 
HETATM    3  C   UNL     1      62.540   9.086   4.394  1.00  0.00    -0.055 A 
HETATM    4  C   UNL     1      62.415  10.491   4.380  1.00  0.00    -0.056 A 
HETATM    5  C   UNL     1      61.661  10.393   2.065  1.00  0.00     0.018 A 
HETATM    6  C   UNL     1      61.967  11.127   3.210  1.00  0.00     0.008 A 
HETATM    7  C   UNL     1      62.987   8.342   5.623  1.00  0.00     0.049 C 
HETATM    8  C   UNL     1      62.754  11.361   5.560  1.00  0.00     0.049 C 
ENDROOT
BRANCH   1   9
HETATM    9  C   UNL     1      61.478   8.273   0.806  1.00  0.00     0.292 C 
HETATM   10  O   UNL     1      62.282   7.577   0.206  1.00  0.00    -0.259 OA
BRANCH   9  11
HETATM   11  O   UNL     1      60.185   8.480   0.448  1.00  0.00    -0.323 OA
HETATM   12  C   UNL     1      59.396   7.294   0.327  1.00  0.00     0.213 C 
ENDBRANCH   9  11
ENDBRANCH   1   9
TORSDOF 2
ENDMDL
MODEL 9
REMARK VINA RESULT:      -4.2      1.781      3.003
REMARK  2 active torsions:
REMARK  status: ('A' for Active; 'I' for Inactive)
REMARK    1  A    between atoms: C_1  and  C_2 
REMARK    2  A    between atoms: C_1  and  O_9 
ROOT
HETATM    1  C   UNL     1      63.219   8.848   3.858  1.00  0.00     0.040 A 
HETATM    2  C   UNL     1      63.545   7.589   3.333  1.00  0.00     0.025 A 
HETATM    3  C   UNL     1      62.968   7.132   2.132  1.00  0.00    -0.055 A 
HETATM    4  C   UNL     1      62.033   7.947   1.462  1.00  0.00    -0.056 A 
HETATM    5  C   UNL     1      62.310   9.658   3.174  1.00  0.00     0.018 A 
HETATM    6  C   UNL     1      61.720   9.210   1.993  1.00  0.00     0.008 A 
HETATM    7  C   UNL     1      63.366   5.782   1.601  1.00  0.00     0.049 C 
HETATM    8  C   UNL     1      61.327   7.528   0.200  1.00  0.00     0.049 C 
ENDROOT
BRANCH   1   9
HETATM    9  C   UNL     1      63.805   9.372   5.121  1.00  0.00     0.292 C 
HETATM   10  O   UNL     1      64.967   9.186   5.450  1.00  0.00    -0.259 OA
BRANCH   9  11
HETATM   11  O   UNL     1      62.886  10.080   5.826  1.00  0.00    -0.323 OA
HETATM   12  C   UNL     1      63.296  11.399   6.197  1.00  0.00     0.213 C 
ENDBRANCH   9  11
ENDBRANCH   1   9
TORSDOF 2
ENDMDL
