MODEL 1
REMARK VINA RESULT:      -4.1      0.000      0.000
REMARK  4 active torsions:
REMARK  status: ('A' for Active; 'I' for Inactive)
REMARK    1  A    between atoms: C_4  and  C_7 
REMARK    2  A    between atoms: N_5  and  C_7 
REMARK    3  A    between atoms: N_5  and  C_9 
REMARK    4  A    between atoms: C_6  and  C_9 
ROOT
HETATM    1  N   UNL     1      61.941  11.837   4.201  1.00  0.00    -0.197 NA
HETATM    2  C   UNL     1      61.993  10.957   3.448  1.00  0.00     0.060 C 
HETATM    3  C   UNL     1      62.060   9.829   2.508  1.00  0.00     0.151 C 
ENDROOT
BRANCH   3   4
HETATM    4  C   UNL     1      62.634   8.596   3.208  1.00  0.00     0.246 C 
BRANCH   4   5
HETATM    5  N   UNL     1      62.489   8.687   4.667  1.00  0.00    -0.072 N 
HETATM    6  H   UNL     1      61.563   8.346   4.928  1.00  0.00     0.277 HD
HETATM    7  H   UNL     1      62.611   9.663   4.935  1.00  0.00     0.277 HD
BRANCH   5   8
HETATM    8  C   UNL     1      63.509   7.888   5.376  1.00  0.00     0.264 C 
BRANCH   8   9
HETATM    9  C   UNL     1      64.955   8.242   4.990  1.00  0.00     0.147 C 
HETATM   10  O   UNL     1      65.671   8.725   6.146  1.00  0.00    -0.384 OA
HETATM   11  C   UNL     1      66.992   8.167   6.123  1.00  0.00     0.168 C 
HETATM   12  C   UNL     1      67.164   7.491   4.779  1.00  0.00     0.029 C 
HETATM   13  C   UNL     1      65.753   7.070   4.451  1.00  0.00     0.036 C 
ENDBRANCH   8   9
ENDBRANCH   5   8
ENDBRANCH   4   5
ENDBRANCH   3   4
TORSDOF 4
ENDMDL
MODEL 2
REMARK VINA RESULT:      -3.9      1.447      1.975
REMARK  4 active torsions:
REMARK  status: ('A' for Active; 'I' for Inactive)
REMARK    1  A    between atoms: C_4  and  C_7 
REMARK    2  A    between atoms: N_5  and  C_7 
REMARK    3  A    between atoms: N_5  and  C_9 
REMARK    4  A    between atoms: C_6  and  C_9 
ROOT
HETATM    1  N   UNL     1      61.730   8.585   1.123  1.00  0.00    -0.197 NA
HETATM    2  C   UNL     1      61.802   9.655   1.566  1.00  0.00     0.060 C 
HETATM    3  C   UNL     1      61.901  11.003   2.142  1.00  0.00     0.151 C 
ENDROOT
BRANCH   3   4
HETATM    4  C   UNL     1      61.913  10.921   3.669  1.00  0.00     0.246 C 
BRANCH   4   5
HETATM    5  N   UNL     1      62.199   9.556   4.134  1.00  0.00    -0.072 N 
HETATM    6  H   UNL     1      62.595   9.022   3.361  1.00  0.00     0.277 HD
HETATM    7  H   UNL     1      61.325   9.145   4.458  1.00  0.00     0.277 HD
BRANCH   5   8
HETATM    8  C   UNL     1      63.154   9.545   5.261  1.00  0.00     0.264 C 
BRANCH   8   9
HETATM    9  C   UNL     1      64.489   8.852   4.938  1.00  0.00     0.147 C 
HETATM   10  O   UNL     1      65.486   9.218   5.915  1.00  0.00    -0.384 OA
HETATM   11  C   UNL     1      66.247   8.047   6.242  1.00  0.00     0.168 C 
HETATM   12  C   UNL     1      65.844   6.968   5.259  1.00  0.00     0.029 C 
HETATM   13  C   UNL     1      64.415   7.336   4.949  1.00  0.00     0.036 C 
ENDBRANCH   8   9
ENDBRANCH   5   8
ENDBRANCH   4   5
ENDBRANCH   3   4
TORSDOF 4
ENDMDL
MODEL 3
REMARK VINA RESULT:      -3.9      2.359      4.960
REMARK  4 active torsions:
REMARK  status: ('A' for Active; 'I' for Inactive)
REMARK    1  A    between atoms: C_4  and  C_7 
REMARK    2  A    between atoms: N_5  and  C_7 
REMARK    3  A    between atoms: N_5  and  C_9 
REMARK    4  A    between atoms: C_6  and  C_9 
ROOT
HETATM    1  N   UNL     1      67.907   8.251   4.784  1.00  0.00    -0.197 NA
HETATM    2  C   UNL     1      67.572   7.549   5.643  1.00  0.00     0.060 C 
HETATM    3  C   UNL     1      67.129   6.660   6.727  1.00  0.00     0.151 C 
ENDROOT
BRANCH   3   4
HETATM    4  C   UNL     1      65.657   6.920   7.050  1.00  0.00     0.246 C 
BRANCH   4   5
HETATM    5  N   UNL     1      65.077   7.927   6.151  1.00  0.00    -0.072 N 
HETATM    6  H   UNL     1      65.769   8.175   5.444  1.00  0.00     0.277 HD
HETATM    7  H   UNL     1      64.817   8.737   6.713  1.00  0.00     0.277 HD
BRANCH   5   8
HETATM    8  C   UNL     1      63.861   7.430   5.475  1.00  0.00     0.264 C 
BRANCH   8   9
HETATM    9  C   UNL     1      62.808   8.519   5.211  1.00  0.00     0.147 C 
HETATM   10  O   UNL     1      63.041   9.653   6.073  1.00  0.00    -0.384 OA
HETATM   11  C   UNL     1      62.835  10.849   5.308  1.00  0.00     0.168 C 
HETATM   12  C   UNL     1      62.234  10.431   3.982  1.00  0.00     0.029 C 
HETATM   13  C   UNL     1      62.817   9.052   3.790  1.00  0.00     0.036 C 
ENDBRANCH   8   9
ENDBRANCH   5   8
ENDBRANCH   4   5
ENDBRANCH   3   4
TORSDOF 4
ENDMDL
MODEL 4
REMARK VINA RESULT:      -3.8      2.299      5.165
REMARK  4 active torsions:
REMARK  status: ('A' for Active; 'I' for Inactive)
REMARK    1  A    between atoms: C_4  and  C_7 
REMARK    2  A    between atoms: N_5  and  C_7 
REMARK    3  A    between atoms: N_5  and  C_9 
REMARK    4  A    between atoms: C_6  and  C_9 
ROOT
HETATM    1  N   UNL     1      65.531   6.283   7.643  1.00  0.00    -0.197 NA
HETATM    2  C   UNL     1      65.852   7.042   6.828  1.00  0.00     0.060 C 
HETATM    3  C   UNL     1      66.243   8.013   5.796  1.00  0.00     0.151 C 
ENDROOT
BRANCH   3   4
HETATM    4  C   UNL     1      64.998   8.608   5.137  1.00  0.00     0.246 C 
BRANCH   4   5
HETATM    5  N   UNL     1      63.767   8.133   5.782  1.00  0.00    -0.072 N 
HETATM    6  H   UNL     1      63.653   8.618   6.672  1.00  0.00     0.277 HD
HETATM    7  H   UNL     1      63.852   7.126   5.918  1.00  0.00     0.277 HD
BRANCH   5   8
HETATM    8  C   UNL     1      62.573   8.381   4.947  1.00  0.00     0.264 C 
BRANCH   8   9
HETATM    9  C   UNL     1      62.821   9.354   3.782  1.00  0.00     0.147 C 
HETATM   10  O   UNL     1      62.601   8.684   2.523  1.00  0.00    -0.384 OA
HETATM   11  C   UNL     1      61.905   9.585   1.650  1.00  0.00     0.168 C 
HETATM   12  C   UNL     1      61.895  10.940   2.326  1.00  0.00     0.029 C 
HETATM   13  C   UNL     1      61.908  10.566   3.788  1.00  0.00     0.036 C 
ENDBRANCH   8   9
ENDBRANCH   5   8
ENDBRANCH   4   5
ENDBRANCH   3   4
TORSDOF 4
ENDMDL
MODEL 5
REMARK VINA RESULT:      -3.8      2.839      5.589
REMARK  4 active torsions:
REMARK  status: ('A' for Active; 'I' for Inactive)
REMARK    1  A    between atoms: C_4  and  C_7 
REMARK    2  A    between atoms: N_5  and  C_7 
REMARK    3  A    between atoms: N_5  and  C_9 
REMARK    4  A    between atoms: C_6  and  C_9 
ROOT
HETATM    1  N   UNL     1      66.139   4.251   8.079  1.00  0.00    -0.197 NA
HETATM    2  C   UNL     1      66.175   5.410   8.072  1.00  0.00     0.060 C 
HETATM    3  C   UNL     1      66.219   6.879   8.046  1.00  0.00     0.151 C 
ENDROOT
BRANCH   3   4
HETATM    4  C   UNL     1      66.602   7.367   6.648  1.00  0.00     0.246 C 
BRANCH   4   5
HETATM    5  N   UNL     1      65.755   8.488   6.217  1.00  0.00    -0.072 N 
HETATM    6  H   UNL     1      66.353   9.277   5.971  1.00  0.00     0.277 HD
HETATM    7  H   UNL     1      65.130   8.725   6.987  1.00  0.00     0.277 HD
BRANCH   5   8
HETATM    8  C   UNL     1      64.925   8.136   5.047  1.00  0.00     0.264 C 
BRANCH   8   9
HETATM    9  C   UNL     1      63.517   8.754   5.074  1.00  0.00     0.147 C 
HETATM   10  O   UNL     1      63.542  10.010   5.784  1.00  0.00    -0.384 OA
HETATM   11  C   UNL     1      62.715  10.944   5.075  1.00  0.00     0.168 C 
HETATM   12  C   UNL     1      61.976  10.162   4.009  1.00  0.00     0.029 C 
HETATM   13  C   UNL     1      62.948   9.050   3.699  1.00  0.00     0.036 C 
ENDBRANCH   8   9
ENDBRANCH   5   8
ENDBRANCH   4   5
ENDBRANCH   3   4
TORSDOF 4
ENDMDL
MODEL 6
REMARK VINA RESULT:      -3.7      2.499      4.948
REMARK  4 active torsions:
REMARK  status: ('A' for Active; 'I' for Inactive)
REMARK    1  A    between atoms: C_4  and  C_7 
REMARK    2  A    between atoms: N_5  and  C_7 
REMARK    3  A    between atoms: N_5  and  C_9 
REMARK    4  A    between atoms: C_6  and  C_9 
ROOT
HETATM    1  N   UNL     1      62.141   5.529   4.539  1.00  0.00    -0.197 NA
HETATM    2  C   UNL     1      63.100   5.878   5.090  1.00  0.00     0.060 C 
HETATM    3  C   UNL     1      64.307   6.337   5.792  1.00  0.00     0.151 C 
ENDROOT
BRANCH   3   4
HETATM    4  C   UNL     1      64.404   7.862   5.726  1.00  0.00     0.246 C 
BRANCH   4   5
HETATM    5  N   UNL     1      63.080   8.491   5.824  1.00  0.00    -0.072 N 
HETATM    6  H   UNL     1      62.842   8.607   6.809  1.00  0.00     0.277 HD
HETATM    7  H   UNL     1      62.408   7.887   5.351  1.00  0.00     0.277 HD
BRANCH   5   8
HETATM    8  C   UNL     1      63.046   9.814   5.167  1.00  0.00     0.264 C 
BRANCH   8   9
HETATM    9  C   UNL     1      62.040   9.907   4.007  1.00  0.00     0.147 C 
HETATM   10  O   UNL     1      61.828  11.288   3.645  1.00  0.00    -0.384 OA
HETATM   11  C   UNL     1      61.775  11.374   2.214  1.00  0.00     0.168 C 
HETATM   12  C   UNL     1      61.730   9.956   1.685  1.00  0.00     0.029 C 
HETATM   13  C   UNL     1      62.490   9.196   2.744  1.00  0.00     0.036 C 
ENDBRANCH   8   9
ENDBRANCH   5   8
ENDBRANCH   4   5
ENDBRANCH   3   4
TORSDOF 4
ENDMDL
MODEL 7
REMARK VINA RESULT:      -3.6      3.770      6.355
REMARK  4 active torsions:
REMARK  status: ('A' for Active; 'I' for Inactive)
REMARK    1  A    between atoms: C_4  and  C_7 
REMARK    2  A    between atoms: N_5  and  C_7 
REMARK    3  A    between atoms: N_5  and  C_9 
REMARK    4  A    between atoms: C_6  and  C_9 
ROOT
HETATM    1  N   UNL     1      67.343   3.275   8.828  1.00  0.00    -0.197 NA
HETATM    2  C   UNL     1      67.652   4.387   8.945  1.00  0.00     0.060 C 
HETATM    3  C   UNL     1      68.026   5.801   9.095  1.00  0.00     0.151 C 
ENDROOT
BRANCH   3   4
HETATM    4  C   UNL     1      66.841   6.697   8.732  1.00  0.00     0.246 C 
BRANCH   4   5
HETATM    5  N   UNL     1      67.168   7.600   7.620  1.00  0.00    -0.072 N 
HETATM    6  H   UNL     1      68.155   7.849   7.677  1.00  0.00     0.277 HD
HETATM    7  H   UNL     1      66.573   8.424   7.698  1.00  0.00     0.277 HD
BRANCH   5   8
HETATM    8  C   UNL     1      66.910   6.974   6.306  1.00  0.00     0.264 C 
BRANCH   8   9
HETATM    9  C   UNL     1      65.459   7.128   5.818  1.00  0.00     0.147 C 
HETATM   10  O   UNL     1      64.974   8.453   6.119  1.00  0.00    -0.384 OA
HETATM   11  C   UNL     1      64.215   8.920   4.994  1.00  0.00     0.168 C 
HETATM   12  C   UNL     1      64.042   7.743   4.056  1.00  0.00     0.029 C 
HETATM   13  C   UNL     1      65.290   6.938   4.322  1.00  0.00     0.036 C 
ENDBRANCH   8   9
ENDBRANCH   5   8
ENDBRANCH   4   5
ENDBRANCH   3   4
TORSDOF 4
ENDMDL
MODEL 8
REMARK VINA RESULT:      -3.6      2.521      3.752
REMARK  4 active torsions:
REMARK  status: ('A' for Active; 'I' for Inactive)
REMARK    1  A    between atoms: C_4  and  C_7 
REMARK    2  A    between atoms: N_5  and  C_7 
REMARK    3  A    between atoms: N_5  and  C_9 
REMARK    4  A    between atoms: C_6  and  C_9 
ROOT
HETATM    1  N   UNL     1      62.745   7.618   6.807  1.00  0.00    -0.197 NA
HETATM    2  C   UNL     1      63.211   7.827   5.766  1.00  0.00     0.060 C 
HETATM    3  C   UNL     1      63.806   8.075   4.445  1.00  0.00     0.151 C 
ENDROOT
BRANCH   3   4
HETATM    4  C   UNL     1      64.851   7.003   4.131  1.00  0.00     0.246 C 
BRANCH   4   5
HETATM    5  N   UNL     1      65.341   6.353   5.354  1.00  0.00    -0.072 N 
HETATM    6  H   UNL     1      65.079   5.367   5.330  1.00  0.00     0.277 HD
HETATM    7  H   UNL     1      64.920   6.827   6.153  1.00  0.00     0.277 HD
BRANCH   5   8
HETATM    8  C   UNL     1      66.809   6.453   5.484  1.00  0.00     0.264 C 
BRANCH   8   9
HETATM    9  C   UNL     1      67.288   6.741   6.917  1.00  0.00     0.147 C 
HETATM   10  O   UNL     1      66.155   6.977   7.779  1.00  0.00    -0.384 OA
HETATM   11  C   UNL     1      66.399   6.319   9.031  1.00  0.00     0.168 C 
HETATM   12  C   UNL     1      67.838   5.848   9.013  1.00  0.00     0.029 C 
HETATM   13  C   UNL     1      68.074   5.603   7.543  1.00  0.00     0.036 C 
ENDBRANCH   8   9
ENDBRANCH   5   8
ENDBRANCH   4   5
ENDBRANCH   3   4
TORSDOF 4
ENDMDL
MODEL 9
REMARK VINA RESULT:      -3.2      3.283      5.514
REMARK  4 active torsions:
REMARK  status: ('A' for Active; 'I' for Inactive)
REMARK    1  A    between atoms: C_4  and  C_7 
REMARK    2  A    between atoms: N_5  and  C_7 
REMARK    3  A    between atoms: N_5  and  C_9 
REMARK    4  A    between atoms: C_6  and  C_9 
ROOT
HETATM    1  N   UNL     1      65.378   3.554   5.398  1.00  0.00    -0.197 NA
HETATM    2  C   UNL     1      66.360   4.156   5.533  1.00  0.00     0.060 C 
HETATM    3  C   UNL     1      67.599   4.925   5.720  1.00  0.00     0.151 C 
ENDROOT
BRANCH   3   4
HETATM    4  C   UNL     1      67.381   6.024   6.761  1.00  0.00     0.246 C 
BRANCH   4   5
HETATM    5  N   UNL     1      67.879   7.323   6.287  1.00  0.00    -0.072 N 
HETATM    6  H   UNL     1      68.840   7.209   5.964  1.00  0.00     0.277 HD
HETATM    7  H   UNL     1      67.825   7.982   7.062  1.00  0.00     0.277 HD
BRANCH   5   8
HETATM    8  C   UNL     1      67.063   7.856   5.177  1.00  0.00     0.264 C 
BRANCH   8   9
HETATM    9  C   UNL     1      65.553   7.879   5.470  1.00  0.00     0.147 C 
HETATM   10  O   UNL     1      65.114   9.236   5.694  1.00  0.00    -0.384 OA
HETATM   11  C   UNL     1      63.849   9.412   5.040  1.00  0.00     0.168 C 
HETATM   12  C   UNL     1      63.390   8.043   4.584  1.00  0.00     0.029 C 
HETATM   13  C   UNL     1      64.699   7.333   4.341  1.00  0.00     0.036 C 
ENDBRANCH   8   9
ENDBRANCH   5   8
ENDBRANCH   4   5
ENDBRANCH   3   4
TORSDOF 4
ENDMDL
