MODEL 1
REMARK VINA RESULT:      -5.9      0.000      0.000
REMARK  1 active torsions:
REMARK  status: ('A' for Active; 'I' for Inactive)
REMARK    1  A    between atoms: N_3  and  O_6 
ROOT
HETATM    1  C   UNL     1      62.444   9.326   3.843  1.00  0.00    -0.005 A 
HETATM    2  C   UNL     1      62.768   8.270   4.848  1.00  0.00     0.042 C 
HETATM    3  N   UNL     1      63.065   8.615   6.068  1.00  0.00    -0.273 N 
ATOM      4  HN  UNL     1      63.094   9.580   6.395  1.00  0.00     0.194 HD
HETATM    5  C   UNL     1      62.394   9.005   2.474  1.00  0.00    -0.046 A 
HETATM    6  C   UNL     1      62.701   6.835   4.352  1.00  0.00     0.060 C 
HETATM    7  C   UNL     1      63.379   6.741   2.995  1.00  0.00     0.011 C 
HETATM    8  C   UNL     1      62.187  10.636   4.268  1.00  0.00     0.014 A 
HETATM    9  C   UNL     1      62.649   7.607   1.973  1.00  0.00     0.040 C 
HETATM   10  C   UNL     1      62.057  10.008   1.554  1.00  0.00     0.008 A 
HETATM   11  C   UNL     1      61.862  11.624   3.340  1.00  0.00     0.001 A 
HETATM   12  C   UNL     1      61.793  11.308   1.984  1.00  0.00     0.001 A 
ENDROOT
BRANCH   3  13
HETATM   13  O   UNL     1      63.337   7.509   6.878  1.00  0.00    -0.290 OA
HETATM   14  H   UNL     1      63.763   6.757   6.517  1.00  0.00     0.244 HD
ENDBRANCH   3  13
TORSDOF 1
ENDMDL
MODEL 2
REMARK VINA RESULT:      -5.6      2.240      3.379
REMARK  1 active torsions:
REMARK  status: ('A' for Active; 'I' for Inactive)
REMARK    1  A    between atoms: N_3  and  O_6 
ROOT
HETATM    1  C   UNL     1      62.379   9.119   2.676  1.00  0.00    -0.005 A 
HETATM    2  C   UNL     1      62.360  10.176   3.731  1.00  0.00     0.042 C 
HETATM    3  N   UNL     1      61.920  11.366   3.438  1.00  0.00    -0.273 N 
ATOM      4  HN  UNL     1      61.580  11.636   2.516  1.00  0.00     0.194 HD
HETATM    5  C   UNL     1      63.095   7.927   2.885  1.00  0.00    -0.046 A 
HETATM    6  C   UNL     1      62.851   9.754   5.106  1.00  0.00     0.060 C 
HETATM    7  C   UNL     1      64.124   8.938   4.955  1.00  0.00     0.011 C 
HETATM    8  C   UNL     1      61.678   9.317   1.479  1.00  0.00     0.014 A 
HETATM    9  C   UNL     1      63.850   7.664   4.162  1.00  0.00     0.040 C 
HETATM   10  C   UNL     1      63.071   6.937   1.892  1.00  0.00     0.008 A 
HETATM   11  C   UNL     1      61.670   8.327   0.497  1.00  0.00     0.001 A 
HETATM   12  C   UNL     1      62.363   7.137   0.706  1.00  0.00     0.001 A 
ENDROOT
BRANCH   3  13
HETATM   13  O   UNL     1      61.967  12.231   4.535  1.00  0.00    -0.290 OA
HETATM   14  H   UNL     1      61.295  12.199   5.186  1.00  0.00     0.244 HD
ENDBRANCH   3  13
TORSDOF 1
ENDMDL
MODEL 3
REMARK VINA RESULT:      -5.2      1.980      2.759
REMARK  1 active torsions:
REMARK  status: ('A' for Active; 'I' for Inactive)
REMARK    1  A    between atoms: N_3  and  O_6 
ROOT
HETATM    1  C   UNL     1      62.886   8.876   3.402  1.00  0.00    -0.005 A 
HETATM    2  C   UNL     1      63.161   7.577   2.719  1.00  0.00     0.042 C 
HETATM    3  N   UNL     1      64.046   6.763   3.219  1.00  0.00    -0.273 N 
ATOM      4  HN  UNL     1      64.581   6.955   4.065  1.00  0.00     0.194 HD
HETATM    5  C   UNL     1      62.151   9.878   2.744  1.00  0.00    -0.046 A 
HETATM    6  C   UNL     1      62.341   7.295   1.470  1.00  0.00     0.060 C 
HETATM    7  C   UNL     1      62.297   8.545   0.606  1.00  0.00     0.011 C 
HETATM    8  C   UNL     1      63.360   9.092   4.703  1.00  0.00     0.014 A 
HETATM    9  C   UNL     1      61.609   9.684   1.351  1.00  0.00     0.040 C 
HETATM   10  C   UNL     1      61.881  11.077   3.419  1.00  0.00     0.008 A 
HETATM   11  C   UNL     1      63.091  10.293   5.358  1.00  0.00     0.001 A 
HETATM   12  C   UNL     1      62.348  11.282   4.717  1.00  0.00     0.001 A 
ENDROOT
BRANCH   3  13
HETATM   13  O   UNL     1      64.177   5.596   2.462  1.00  0.00    -0.290 OA
HETATM   14  H   UNL     1      64.681   4.878   2.791  1.00  0.00     0.244 HD
ENDBRANCH   3  13
TORSDOF 1
ENDMDL
MODEL 4
REMARK VINA RESULT:      -5.1      0.993      3.022
REMARK  1 active torsions:
REMARK  status: ('A' for Active; 'I' for Inactive)
REMARK    1  A    between atoms: N_3  and  O_6 
ROOT
HETATM    1  C   UNL     1      62.561   8.351   3.025  1.00  0.00    -0.005 A 
HETATM    2  C   UNL     1      62.716   8.653   4.480  1.00  0.00     0.042 C 
HETATM    3  N   UNL     1      62.766   7.673   5.336  1.00  0.00    -0.273 N 
ATOM      4  HN  UNL     1      62.704   6.688   5.078  1.00  0.00     0.194 HD
HETATM    5  C   UNL     1      62.230   9.379   2.124  1.00  0.00    -0.046 A 
HETATM    6  C   UNL     1      62.829  10.123   4.847  1.00  0.00     0.060 C 
HETATM    7  C   UNL     1      61.785  10.914   4.076  1.00  0.00     0.011 C 
HETATM    8  C   UNL     1      62.749   7.043   2.562  1.00  0.00     0.014 A 
HETATM    9  C   UNL     1      62.033  10.803   2.576  1.00  0.00     0.040 C 
HETATM   10  C   UNL     1      62.120   9.075   0.759  1.00  0.00     0.008 A 
HETATM   11  C   UNL     1      62.628   6.755   1.203  1.00  0.00     0.001 A 
HETATM   12  C   UNL     1      62.317   7.772   0.303  1.00  0.00     0.001 A 
ENDROOT
BRANCH   3  13
HETATM   13  O   UNL     1      62.917   8.126   6.649  1.00  0.00    -0.290 OA
HETATM   14  H   UNL     1      62.162   8.322   7.167  1.00  0.00     0.244 HD
ENDBRANCH   3  13
TORSDOF 1
ENDMDL
MODEL 5
REMARK VINA RESULT:      -5.1      1.408      1.558
REMARK  1 active torsions:
REMARK  status: ('A' for Active; 'I' for Inactive)
REMARK    1  A    between atoms: N_3  and  O_6 
ROOT
HETATM    1  C   UNL     1      63.501   8.962   4.584  1.00  0.00    -0.005 A 
HETATM    2  C   UNL     1      64.370   7.940   5.240  1.00  0.00     0.042 C 
HETATM    3  N   UNL     1      65.100   8.280   6.264  1.00  0.00    -0.273 N 
ATOM      4  HN  UNL     1      65.122   9.220   6.659  1.00  0.00     0.194 HD
HETATM    5  C   UNL     1      62.925   8.697   3.329  1.00  0.00    -0.046 A 
HETATM    6  C   UNL     1      64.311   6.540   4.653  1.00  0.00     0.060 C 
HETATM    7  C   UNL     1      64.359   6.629   3.136  1.00  0.00     0.011 C 
HETATM    8  C   UNL     1      63.257  10.184   5.226  1.00  0.00     0.014 A 
HETATM    9  C   UNL     1      63.148   7.392   2.609  1.00  0.00     0.040 C 
HETATM   10  C   UNL     1      62.088   9.661   2.749  1.00  0.00     0.008 A 
HETATM   11  C   UNL     1      62.429  11.136   4.632  1.00  0.00     0.001 A 
HETATM   12  C   UNL     1      61.842  10.872   3.396  1.00  0.00     0.001 A 
ENDROOT
BRANCH   3  13
HETATM   13  O   UNL     1      65.848   7.209   6.758  1.00  0.00    -0.290 OA
HETATM   14  H   UNL     1      66.387   6.707   6.180  1.00  0.00     0.244 HD
ENDBRANCH   3  13
TORSDOF 1
ENDMDL
MODEL 6
REMARK VINA RESULT:      -5.1      2.052      3.731
REMARK  1 active torsions:
REMARK  status: ('A' for Active; 'I' for Inactive)
REMARK    1  A    between atoms: N_3  and  O_6 
ROOT
HETATM    1  C   UNL     1      63.172   8.670   3.530  1.00  0.00    -0.005 A 
HETATM    2  C   UNL     1      62.495   9.999   3.448  1.00  0.00     0.042 C 
HETATM    3  N   UNL     1      62.418  10.747   4.511  1.00  0.00    -0.273 N 
ATOM      4  HN  UNL     1      62.797  10.482   5.421  1.00  0.00     0.194 HD
HETATM    5  C   UNL     1      63.026   7.739   2.486  1.00  0.00    -0.046 A 
HETATM    6  C   UNL     1      61.954  10.388   2.082  1.00  0.00     0.060 C 
HETATM    7  C   UNL     1      61.236   9.198   1.469  1.00  0.00     0.011 C 
HETATM    8  C   UNL     1      63.955   8.356   4.648  1.00  0.00     0.014 A 
HETATM    9  C   UNL     1      62.205   8.040   1.258  1.00  0.00     0.040 C 
HETATM   10  C   UNL     1      63.697   6.511   2.573  1.00  0.00     0.008 A 
HETATM   11  C   UNL     1      64.610   7.127   4.724  1.00  0.00     0.001 A 
HETATM   12  C   UNL     1      64.483   6.208   3.684  1.00  0.00     0.001 A 
ENDROOT
BRANCH   3  13
HETATM   13  O   UNL     1      61.760  11.953   4.262  1.00  0.00    -0.290 OA
HETATM   14  H   UNL     1      61.405  12.127   3.413  1.00  0.00     0.244 HD
ENDBRANCH   3  13
TORSDOF 1
ENDMDL
MODEL 7
REMARK VINA RESULT:      -5.0      2.021      3.758
REMARK  1 active torsions:
REMARK  status: ('A' for Active; 'I' for Inactive)
REMARK    1  A    between atoms: N_3  and  O_6 
ROOT
HETATM    1  C   UNL     1      64.062   8.502   4.374  1.00  0.00    -0.005 A 
HETATM    2  C   UNL     1      63.378   9.759   4.803  1.00  0.00     0.042 C 
HETATM    3  N   UNL     1      63.796  10.386   5.865  1.00  0.00    -0.273 N 
ATOM      4  HN  UNL     1      64.576  10.072   6.441  1.00  0.00     0.194 HD
HETATM    5  C   UNL     1      63.466   7.669   3.410  1.00  0.00    -0.046 A 
HETATM    6  C   UNL     1      62.230  10.226   3.923  1.00  0.00     0.060 C 
HETATM    7  C   UNL     1      61.352   9.037   3.570  1.00  0.00     0.011 C 
HETATM    8  C   UNL     1      65.299   8.157   4.933  1.00  0.00     0.014 A 
HETATM    9  C   UNL     1      62.144   8.008   2.771  1.00  0.00     0.040 C 
HETATM   10  C   UNL     1      64.144   6.511   3.002  1.00  0.00     0.008 A 
HETATM   11  C   UNL     1      65.956   6.998   4.524  1.00  0.00     0.001 A 
HETATM   12  C   UNL     1      65.380   6.178   3.556  1.00  0.00     0.001 A 
ENDROOT
BRANCH   3  13
HETATM   13  O   UNL     1      63.052  11.541   6.123  1.00  0.00    -0.290 OA
HETATM   14  H   UNL     1      63.229  12.328   5.648  1.00  0.00     0.244 HD
ENDBRANCH   3  13
TORSDOF 1
ENDMDL
MODEL 8
REMARK VINA RESULT:      -4.7      2.786      4.235
REMARK  1 active torsions:
REMARK  status: ('A' for Active; 'I' for Inactive)
REMARK    1  A    between atoms: N_3  and  O_6 
ROOT
HETATM    1  C   UNL     1      61.490   8.665   3.101  1.00  0.00    -0.005 A 
HETATM    2  C   UNL     1      61.835  10.118   3.063  1.00  0.00     0.042 C 
HETATM    3  N   UNL     1      61.681  10.784   1.955  1.00  0.00    -0.273 N 
ATOM      4  HN  UNL     1      61.335  10.375   1.088  1.00  0.00     0.194 HD
HETATM    5  C   UNL     1      61.902   7.870   4.187  1.00  0.00    -0.046 A 
HETATM    6  C   UNL     1      62.330  10.719   4.368  1.00  0.00     0.060 C 
HETATM    7  C   UNL     1      63.339   9.777   5.004  1.00  0.00     0.011 C 
HETATM    8  C   UNL     1      60.753   8.096   2.054  1.00  0.00     0.014 A 
HETATM    9  C   UNL     1      62.683   8.442   5.342  1.00  0.00     0.040 C 
HETATM   10  C   UNL     1      61.539   6.516   4.213  1.00  0.00     0.008 A 
HETATM   11  C   UNL     1      60.407   6.746   2.090  1.00  0.00     0.001 A 
HETATM   12  C   UNL     1      60.797   5.959   3.172  1.00  0.00     0.001 A 
ENDROOT
BRANCH   3  13
HETATM   13  O   UNL     1      62.045  12.126   2.092  1.00  0.00    -0.290 OA
HETATM   14  H   UNL     1      62.942  12.381   2.003  1.00  0.00     0.244 HD
ENDBRANCH   3  13
TORSDOF 1
ENDMDL
MODEL 9
REMARK VINA RESULT:      -4.6      2.687      4.490
REMARK  1 active torsions:
REMARK  status: ('A' for Active; 'I' for Inactive)
REMARK    1  A    between atoms: N_3  and  O_6 
ROOT
HETATM    1  C   UNL     1      63.362   8.275   3.630  1.00  0.00    -0.005 A 
HETATM    2  C   UNL     1      62.134   8.809   2.969  1.00  0.00     0.042 C 
HETATM    3  N   UNL     1      61.780   8.347   1.804  1.00  0.00    -0.273 N 
ATOM      4  HN  UNL     1      62.296   7.629   1.296  1.00  0.00     0.194 HD
HETATM    5  C   UNL     1      63.912   8.941   4.740  1.00  0.00    -0.046 A 
HETATM    6  C   UNL     1      61.365   9.863   3.747  1.00  0.00     0.060 C 
HETATM    7  C   UNL     1      62.342  10.872   4.326  1.00  0.00     0.011 C 
HETATM    8  C   UNL     1      63.963   7.106   3.143  1.00  0.00     0.014 A 
HETATM    9  C   UNL     1      63.292  10.192   5.306  1.00  0.00     0.040 C 
HETATM   10  C   UNL     1      65.048   8.402   5.361  1.00  0.00     0.008 A 
HETATM   11  C   UNL     1      65.097   6.587   3.767  1.00  0.00     0.001 A 
HETATM   12  C   UNL     1      65.636   7.233   4.877  1.00  0.00     0.001 A 
ENDROOT
BRANCH   3  13
HETATM   13  O   UNL     1      60.611   8.948   1.330  1.00  0.00    -0.290 OA
HETATM   14  H   UNL     1      60.090   9.475   1.903  1.00  0.00     0.244 HD
ENDBRANCH   3  13
TORSDOF 1
ENDMDL
