MODEL 1
REMARK VINA RESULT:      -4.6      0.000      0.000
REMARK  3 active torsions:
REMARK  status: ('A' for Active; 'I' for Inactive)
REMARK    1  A    between atoms: C_3  and  C_8 
REMARK    2  A    between atoms: O_5  and  C_7 
REMARK    3  A    between atoms: C_7  and  C_8 
ROOT
HETATM    1  N   UNL     1      61.482  10.743   2.037  1.00  0.00    -0.375 N 
ATOM      2  HN  UNL     1      60.989  11.546   1.644  1.00  0.00     0.164 HD
HETATM    3  C   UNL     1      62.650   9.695   3.884  1.00  0.00    -0.041 A 
HETATM    4  C   UNL     1      61.964  10.756   3.298  1.00  0.00     0.094 A 
HETATM    5  C   UNL     1      61.684   9.616   1.322  1.00  0.00     0.087 A 
HETATM    6  C   UNL     1      62.848   8.550   3.110  1.00  0.00     0.010 A 
HETATM    7  C   UNL     1      62.354   8.507   1.809  1.00  0.00     0.018 A 
ENDROOT
BRANCH   3   8
HETATM    8  C   UNL     1      63.181   9.804   5.289  1.00  0.00     0.066 C 
BRANCH   8   9
HETATM    9  C   UNL     1      63.106  11.225   5.843  1.00  0.00     0.168 C 
BRANCH   9  10
HETATM   10  O   UNL     1      64.327  11.605   6.468  1.00  0.00    -0.401 OA
HETATM   11  H   UNL     1      64.961  10.872   6.410  1.00  0.00     0.209 HD
ENDBRANCH   9  10
ENDBRANCH   8   9
ENDBRANCH   3   8
TORSDOF 3
ENDMDL
MODEL 2
REMARK VINA RESULT:      -4.5      1.019      1.624
REMARK  3 active torsions:
REMARK  status: ('A' for Active; 'I' for Inactive)
REMARK    1  A    between atoms: C_3  and  C_8 
REMARK    2  A    between atoms: O_5  and  C_7 
REMARK    3  A    between atoms: C_7  and  C_8 
ROOT
HETATM    1  N   UNL     1      62.603   8.148   1.925  1.00  0.00    -0.375 N 
ATOM      2  HN  UNL     1      62.793   7.251   1.477  1.00  0.00     0.164 HD
HETATM    3  C   UNL     1      62.682   9.577   3.882  1.00  0.00    -0.041 A 
HETATM    4  C   UNL     1      62.924   8.377   3.217  1.00  0.00     0.094 A 
HETATM    5  C   UNL     1      62.019   9.165   1.256  1.00  0.00     0.087 A 
HETATM    6  C   UNL     1      62.068  10.601   3.160  1.00  0.00     0.010 A 
HETATM    7  C   UNL     1      61.733  10.395   1.823  1.00  0.00     0.018 A 
ENDROOT
BRANCH   3   8
HETATM    8  C   UNL     1      63.045   9.738   5.334  1.00  0.00     0.066 C 
BRANCH   8   9
HETATM    9  C   UNL     1      63.093  11.200   5.774  1.00  0.00     0.168 C 
BRANCH   9  10
HETATM   10  O   UNL     1      64.311  11.501   6.446  1.00  0.00    -0.401 OA
HETATM   11  H   UNL     1      64.342  11.022   7.290  1.00  0.00     0.209 HD
ENDBRANCH   9  10
ENDBRANCH   8   9
ENDBRANCH   3   8
TORSDOF 3
ENDMDL
MODEL 3
REMARK VINA RESULT:      -3.7      1.945      2.462
REMARK  3 active torsions:
REMARK  status: ('A' for Active; 'I' for Inactive)
REMARK    1  A    between atoms: C_3  and  C_8 
REMARK    2  A    between atoms: O_5  and  C_7 
REMARK    3  A    between atoms: C_7  and  C_8 
ROOT
HETATM    1  N   UNL     1      62.609   7.892   1.562  1.00  0.00    -0.375 N 
ATOM      2  HN  UNL     1      62.784   7.034   1.037  1.00  0.00     0.164 HD
HETATM    3  C   UNL     1      62.707   9.140   3.639  1.00  0.00    -0.041 A 
HETATM    4  C   UNL     1      62.929   8.000   2.870  1.00  0.00     0.094 A 
HETATM    5  C   UNL     1      62.046   8.974   0.985  1.00  0.00     0.087 A 
HETATM    6  C   UNL     1      62.114  10.235   3.008  1.00  0.00     0.010 A 
HETATM    7  C   UNL     1      61.780  10.155   1.659  1.00  0.00     0.018 A 
ENDROOT
BRANCH   3   8
HETATM    8  C   UNL     1      63.068   9.166   5.100  1.00  0.00     0.066 C 
BRANCH   8   9
HETATM    9  C   UNL     1      62.833   7.825   5.792  1.00  0.00     0.168 C 
BRANCH   9  10
HETATM   10  O   UNL     1      62.565   7.996   7.180  1.00  0.00    -0.401 OA
HETATM   11  H   UNL     1      62.389   7.132   7.584  1.00  0.00     0.209 HD
ENDBRANCH   9  10
ENDBRANCH   8   9
ENDBRANCH   3   8
TORSDOF 3
ENDMDL
MODEL 4
REMARK VINA RESULT:      -3.6      2.523      3.312
REMARK  3 active torsions:
REMARK  status: ('A' for Active; 'I' for Inactive)
REMARK    1  A    between atoms: C_3  and  C_8 
REMARK    2  A    between atoms: O_5  and  C_7 
REMARK    3  A    between atoms: C_7  and  C_8 
ROOT
HETATM    1  N   UNL     1      63.846   7.116   3.078  1.00  0.00    -0.375 N 
ATOM      2  HN  UNL     1      63.449   6.615   2.283  1.00  0.00     0.164 HD
HETATM    3  C   UNL     1      63.734   8.924   4.691  1.00  0.00    -0.041 A 
HETATM    4  C   UNL     1      63.235   8.196   3.613  1.00  0.00     0.094 A 
HETATM    5  C   UNL     1      65.008   6.734   3.649  1.00  0.00     0.087 A 
HETATM    6  C   UNL     1      64.942   8.502   5.248  1.00  0.00     0.010 A 
HETATM    7  C   UNL     1      65.590   7.387   4.722  1.00  0.00     0.018 A 
ENDROOT
BRANCH   3   8
HETATM    8  C   UNL     1      63.003  10.134   5.206  1.00  0.00     0.066 C 
BRANCH   8   9
HETATM    9  C   UNL     1      62.120  10.790   4.146  1.00  0.00     0.168 C 
BRANCH   9  10
HETATM   10  O   UNL     1      62.094  12.206   4.295  1.00  0.00    -0.401 OA
HETATM   11  H   UNL     1      62.141  12.432   5.237  1.00  0.00     0.209 HD
ENDBRANCH   9  10
ENDBRANCH   8   9
ENDBRANCH   3   8
TORSDOF 3
ENDMDL
MODEL 5
REMARK VINA RESULT:      -3.5      3.111      4.131
REMARK  3 active torsions:
REMARK  status: ('A' for Active; 'I' for Inactive)
REMARK    1  A    between atoms: C_3  and  C_8 
REMARK    2  A    between atoms: O_5  and  C_7 
REMARK    3  A    between atoms: C_7  and  C_8 
ROOT
HETATM    1  N   UNL     1      63.597   6.664   6.452  1.00  0.00    -0.375 N 
ATOM      2  HN  UNL     1      63.185   5.875   6.950  1.00  0.00     0.164 HD
HETATM    3  C   UNL     1      63.340   8.650   5.084  1.00  0.00    -0.041 A 
HETATM    4  C   UNL     1      62.834   7.559   5.788  1.00  0.00     0.094 A 
HETATM    5  C   UNL     1      64.931   6.866   6.423  1.00  0.00     0.087 A 
HETATM    6  C   UNL     1      64.726   8.820   5.070  1.00  0.00     0.010 A 
HETATM    7  C   UNL     1      65.536   7.916   5.753  1.00  0.00     0.018 A 
ENDROOT
BRANCH   3   8
HETATM    8  C   UNL     1      62.419   9.584   4.346  1.00  0.00     0.066 C 
BRANCH   8   9
HETATM    9  C   UNL     1      62.525  11.028   4.833  1.00  0.00     0.168 C 
BRANCH   9  10
HETATM   10  O   UNL     1      61.969  11.937   3.889  1.00  0.00    -0.401 OA
HETATM   11  H   UNL     1      62.639  12.161   3.224  1.00  0.00     0.209 HD
ENDBRANCH   9  10
ENDBRANCH   8   9
ENDBRANCH   3   8
TORSDOF 3
ENDMDL
MODEL 6
REMARK VINA RESULT:      -3.5      4.495      5.343
REMARK  3 active torsions:
REMARK  status: ('A' for Active; 'I' for Inactive)
REMARK    1  A    between atoms: C_3  and  C_8 
REMARK    2  A    between atoms: O_5  and  C_7 
REMARK    3  A    between atoms: C_7  and  C_8 
ROOT
HETATM    1  N   UNL     1      67.538   7.476   6.499  1.00  0.00    -0.375 N 
ATOM      2  HN  UNL     1      68.143   7.643   7.303  1.00  0.00     0.164 HD
HETATM    3  C   UNL     1      65.538   7.996   5.231  1.00  0.00    -0.041 A 
HETATM    4  C   UNL     1      66.406   8.186   6.304  1.00  0.00     0.094 A 
HETATM    5  C   UNL     1      67.829   6.534   5.577  1.00  0.00     0.087 A 
HETATM    6  C   UNL     1      65.868   7.007   4.304  1.00  0.00     0.010 A 
HETATM    7  C   UNL     1      67.034   6.265   4.475  1.00  0.00     0.018 A 
ENDROOT
BRANCH   3   8
HETATM    8  C   UNL     1      64.280   8.813   5.105  1.00  0.00     0.066 C 
BRANCH   8   9
HETATM    9  C   UNL     1      63.022   8.023   5.464  1.00  0.00     0.168 C 
BRANCH   9  10
HETATM   10  O   UNL     1      62.904   7.846   6.871  1.00  0.00    -0.401 OA
HETATM   11  H   UNL     1      63.717   7.444   7.216  1.00  0.00     0.209 HD
ENDBRANCH   9  10
ENDBRANCH   8   9
ENDBRANCH   3   8
TORSDOF 3
ENDMDL
MODEL 7
REMARK VINA RESULT:      -3.4      2.258      2.751
REMARK  3 active torsions:
REMARK  status: ('A' for Active; 'I' for Inactive)
REMARK    1  A    between atoms: C_3  and  C_8 
REMARK    2  A    between atoms: O_5  and  C_7 
REMARK    3  A    between atoms: C_7  and  C_8 
ROOT
HETATM    1  N   UNL     1      59.720   7.239   2.848  1.00  0.00    -0.375 N 
ATOM      2  HN  UNL     1      59.133   6.606   3.391  1.00  0.00     0.164 HD
HETATM    3  C   UNL     1      61.416   8.969   2.753  1.00  0.00    -0.041 A 
HETATM    4  C   UNL     1      60.596   8.079   3.442  1.00  0.00     0.094 A 
HETATM    5  C   UNL     1      59.660   7.281   1.500  1.00  0.00     0.087 A 
HETATM    6  C   UNL     1      61.318   8.989   1.360  1.00  0.00     0.010 A 
HETATM    7  C   UNL     1      60.429   8.129   0.721  1.00  0.00     0.018 A 
ENDROOT
BRANCH   3   8
HETATM    8  C   UNL     1      62.345   9.892   3.495  1.00  0.00     0.066 C 
BRANCH   8   9
HETATM    9  C   UNL     1      61.905  11.353   3.432  1.00  0.00     0.168 C 
BRANCH   9  10
HETATM   10  O   UNL     1      62.120  12.015   4.674  1.00  0.00    -0.401 OA
HETATM   11  H   UNL     1      61.506  12.762   4.753  1.00  0.00     0.209 HD
ENDBRANCH   9  10
ENDBRANCH   8   9
ENDBRANCH   3   8
TORSDOF 3
ENDMDL
MODEL 8
REMARK VINA RESULT:      -3.2      6.828      7.744
REMARK  3 active torsions:
REMARK  status: ('A' for Active; 'I' for Inactive)
REMARK    1  A    between atoms: C_3  and  C_8 
REMARK    2  A    between atoms: O_5  and  C_7 
REMARK    3  A    between atoms: C_7  and  C_8 
ROOT
HETATM    1  N   UNL     1      66.773   4.517   8.807  1.00  0.00    -0.375 N 
ATOM      2  HN  UNL     1      66.374   4.513   9.746  1.00  0.00     0.164 HD
HETATM    3  C   UNL     1      67.177   5.651   6.702  1.00  0.00    -0.041 A 
HETATM    4  C   UNL     1      66.661   5.591   7.994  1.00  0.00     0.094 A 
HETATM    5  C   UNL     1      67.438   3.452   8.314  1.00  0.00     0.087 A 
HETATM    6  C   UNL     1      67.850   4.525   6.225  1.00  0.00     0.010 A 
HETATM    7  C   UNL     1      67.988   3.407   7.044  1.00  0.00     0.018 A 
ENDROOT
BRANCH   3   8
HETATM    8  C   UNL     1      66.982   6.877   5.851  1.00  0.00     0.066 C 
BRANCH   8   9
HETATM    9  C   UNL     1      66.669   8.126   6.674  1.00  0.00     0.168 C 
BRANCH   9  10
HETATM   10  O   UNL     1      65.707   8.950   6.024  1.00  0.00    -0.401 OA
HETATM   11  H   UNL     1      65.041   8.391   5.593  1.00  0.00     0.209 HD
ENDBRANCH   9  10
ENDBRANCH   8   9
ENDBRANCH   3   8
TORSDOF 3
ENDMDL
MODEL 9
REMARK VINA RESULT:      -3.2     13.790     14.527
REMARK  3 active torsions:
REMARK  status: ('A' for Active; 'I' for Inactive)
REMARK    1  A    between atoms: C_3  and  C_8 
REMARK    2  A    between atoms: O_5  and  C_7 
REMARK    3  A    between atoms: C_7  and  C_8 
ROOT
HETATM    1  N   UNL     1      59.513   1.934  13.346  1.00  0.00    -0.375 N 
ATOM      2  HN  UNL     1      60.072   2.787  13.320  1.00  0.00     0.164 HD
HETATM    3  C   UNL     1      57.392   0.824  13.733  1.00  0.00    -0.041 A 
HETATM    4  C   UNL     1      58.203   1.955  13.674  1.00  0.00     0.094 A 
HETATM    5  C   UNL     1      60.045   0.729  13.054  1.00  0.00     0.087 A 
HETATM    6  C   UNL     1      57.981  -0.406  13.433  1.00  0.00     0.010 A 
HETATM    7  C   UNL     1      59.329  -0.456  13.084  1.00  0.00     0.018 A 
ENDROOT
BRANCH   3   8
HETATM    8  C   UNL     1      55.946   0.933  14.136  1.00  0.00     0.066 C 
BRANCH   8   9
HETATM    9  C   UNL     1      55.339   2.295  13.803  1.00  0.00     0.168 C 
BRANCH   9  10
HETATM   10  O   UNL     1      55.190   3.097  14.970  1.00  0.00    -0.401 OA
HETATM   11  H   UNL     1      55.082   4.026  14.712  1.00  0.00     0.209 HD
ENDBRANCH   9  10
ENDBRANCH   8   9
ENDBRANCH   3   8
TORSDOF 3
ENDMDL
