MODEL 1
REMARK VINA RESULT:      -4.0      0.000      0.000
REMARK  3 active torsions:
REMARK  status: ('A' for Active; 'I' for Inactive)
REMARK    1  A    between atoms: C_1  and  C_2 
REMARK    2  A    between atoms: C_1  and  O_11 
REMARK    3  A    between atoms: C_2  and  N_4 
ROOT
HETATM    1  C   UNL     1      67.051   6.889   6.565  1.00  0.00     0.156 C 
HETATM    2  N   UNL     1      65.651   5.344   8.009  1.00  0.00    -0.067 N 
HETATM    3  C   UNL     1      65.625   6.460   7.020  1.00  0.00     0.287 C 
HETATM    4  C   UNL     1      68.075   5.977   7.297  1.00  0.00     0.038 C 
HETATM    5  C   UNL     1      67.767   4.497   6.984  1.00  0.00     0.036 C 
HETATM    6  C   UNL     1      67.881   6.144   8.817  1.00  0.00     0.036 C 
HETATM    7  C   UNL     1      66.319   4.177   7.389  1.00  0.00     0.235 C 
HETATM    8  C   UNL     1      66.436   5.773   9.189  1.00  0.00     0.235 C 
HETATM    9  H   UNL     1      64.702   5.098   8.289  1.00  0.00     0.280 HD
ENDROOT
BRANCH   1  10
HETATM   10  C   UNL     1      67.201   6.715   5.063  1.00  0.00    -0.037 C 
BRANCH  10  11
HETATM   11  N   UNL     1      67.325   6.571   3.817  1.00  0.00    -0.367 N 
ATOM     12  HN2 UNL     1      67.208   6.658   4.827  1.00  0.00     0.165 HD
ATOM     13  HN1 UNL     1      67.426   6.454   2.808  1.00  0.00     0.165 HD
ENDBRANCH  10  11
ENDBRANCH   1  10
BRANCH   1  14
HETATM   14  O   UNL     1      67.307   8.253   6.933  1.00  0.00    -0.374 OA
HETATM   15  H   UNL     1      66.595   8.571   7.511  1.00  0.00     0.212 HD
ENDBRANCH   1  14
TORSDOF 3
ENDMDL
MODEL 2
REMARK VINA RESULT:      -4.0      2.127      2.941
REMARK  3 active torsions:
REMARK  status: ('A' for Active; 'I' for Inactive)
REMARK    1  A    between atoms: C_1  and  C_2 
REMARK    2  A    between atoms: C_1  and  O_11 
REMARK    3  A    between atoms: C_2  and  N_4 
ROOT
HETATM    1  C   UNL     1      65.655   8.025   5.683  1.00  0.00     0.156 C 
HETATM    2  N   UNL     1      66.093   5.589   6.236  1.00  0.00    -0.067 N 
HETATM    3  C   UNL     1      65.268   6.791   6.550  1.00  0.00     0.287 C 
HETATM    4  C   UNL     1      66.802   7.589   4.727  1.00  0.00     0.038 C 
HETATM    5  C   UNL     1      66.340   6.384   3.880  1.00  0.00     0.036 C 
HETATM    6  C   UNL     1      67.985   7.089   5.578  1.00  0.00     0.036 C 
HETATM    7  C   UNL     1      65.900   5.241   4.810  1.00  0.00     0.235 C 
HETATM    8  C   UNL     1      67.519   5.919   6.461  1.00  0.00     0.235 C 
HETATM    9  H   UNL     1      65.816   4.807   6.829  1.00  0.00     0.280 HD
ENDROOT
BRANCH   1  10
HETATM   10  C   UNL     1      64.463   8.491   4.864  1.00  0.00    -0.037 C 
BRANCH  10  11
HETATM   11  N   UNL     1      63.475   8.878   4.184  1.00  0.00    -0.367 N 
ATOM     12  HN2 UNL     1      64.254   8.557   4.760  1.00  0.00     0.165 HD
ATOM     13  HN1 UNL     1      62.675   9.192   3.634  1.00  0.00     0.165 HD
ENDBRANCH  10  11
ENDBRANCH   1  10
BRANCH   1  14
HETATM   14  O   UNL     1      66.133   9.094   6.514  1.00  0.00    -0.374 OA
HETATM   15  H   UNL     1      65.401   9.700   6.713  1.00  0.00     0.212 HD
ENDBRANCH   1  14
TORSDOF 3
ENDMDL
MODEL 3
REMARK VINA RESULT:      -4.0      4.678      5.691
REMARK  3 active torsions:
REMARK  status: ('A' for Active; 'I' for Inactive)
REMARK    1  A    between atoms: C_1  and  C_2 
REMARK    2  A    between atoms: C_1  and  O_11 
REMARK    3  A    between atoms: C_2  and  N_4 
ROOT
HETATM    1  C   UNL     1      63.642   8.961   5.135  1.00  0.00     0.156 C 
HETATM    2  N   UNL     1      62.221   6.864   5.262  1.00  0.00    -0.067 N 
HETATM    3  C   UNL     1      62.815   7.995   6.033  1.00  0.00     0.287 C 
HETATM    4  C   UNL     1      63.568   8.430   3.676  1.00  0.00     0.038 C 
HETATM    5  C   UNL     1      62.092   8.324   3.238  1.00  0.00     0.036 C 
HETATM    6  C   UNL     1      64.129   6.995   3.648  1.00  0.00     0.036 C 
HETATM    7  C   UNL     1      61.328   7.419   4.219  1.00  0.00     0.235 C 
HETATM    8  C   UNL     1      63.315   6.111   4.606  1.00  0.00     0.235 C 
HETATM    9  H   UNL     1      61.696   6.250   5.884  1.00  0.00     0.280 HD
ENDROOT
BRANCH   1  10
HETATM   10  C   UNL     1      63.062  10.364   5.194  1.00  0.00    -0.037 C 
BRANCH  10  11
HETATM   11  N   UNL     1      62.581  11.528   5.241  1.00  0.00    -0.367 N 
ATOM     12  HN2 UNL     1      62.947  10.576   5.226  1.00  0.00     0.165 HD
ATOM     13  HN1 UNL     1      62.192  12.471   5.280  1.00  0.00     0.165 HD
ENDBRANCH  10  11
ENDBRANCH   1  10
BRANCH   1  14
HETATM   14  O   UNL     1      65.018   8.977   5.547  1.00  0.00    -0.374 OA
HETATM   15  H   UNL     1      65.259   8.105   5.899  1.00  0.00     0.212 HD
ENDBRANCH   1  14
TORSDOF 3
ENDMDL
MODEL 4
REMARK VINA RESULT:      -3.8      6.316      7.558
REMARK  3 active torsions:
REMARK  status: ('A' for Active; 'I' for Inactive)
REMARK    1  A    between atoms: C_1  and  C_2 
REMARK    2  A    between atoms: C_1  and  O_11 
REMARK    3  A    between atoms: C_2  and  N_4 
ROOT
HETATM    1  C   UNL     1      61.413   9.182   2.115  1.00  0.00     0.156 C 
HETATM    2  N   UNL     1      63.173   7.440   2.659  1.00  0.00    -0.067 N 
HETATM    3  C   UNL     1      62.609   8.328   1.602  1.00  0.00     0.287 C 
HETATM    4  C   UNL     1      61.195   8.837   3.615  1.00  0.00     0.038 C 
HETATM    5  C   UNL     1      62.497   9.098   4.402  1.00  0.00     0.036 C 
HETATM    6  C   UNL     1      60.916   7.326   3.734  1.00  0.00     0.036 C 
HETATM    7  C   UNL     1      63.643   8.280   3.784  1.00  0.00     0.235 C 
HETATM    8  C   UNL     1      62.102   6.542   3.147  1.00  0.00     0.235 C 
HETATM    9  H   UNL     1      63.947   6.891   2.283  1.00  0.00     0.280 HD
ENDROOT
BRANCH   1  10
HETATM   10  C   UNL     1      61.723  10.663   1.977  1.00  0.00    -0.037 C 
BRANCH  10  11
HETATM   11  N   UNL     1      61.980  11.892   1.863  1.00  0.00    -0.367 N 
ATOM     12  HN2 UNL     1      61.748  10.901   1.931  1.00  0.00     0.165 HD
ATOM     13  HN1 UNL     1      62.188  12.887   1.771  1.00  0.00     0.165 HD
ENDBRANCH  10  11
ENDBRANCH   1  10
BRANCH   1  14
HETATM   14  O   UNL     1      60.216   8.858   1.392  1.00  0.00    -0.374 OA
HETATM   15  H   UNL     1      59.809   8.065   1.779  1.00  0.00     0.212 HD
ENDBRANCH   1  14
TORSDOF 3
ENDMDL
MODEL 5
REMARK VINA RESULT:      -3.7      1.949      2.642
REMARK  3 active torsions:
REMARK  status: ('A' for Active; 'I' for Inactive)
REMARK    1  A    between atoms: C_1  and  C_2 
REMARK    2  A    between atoms: C_1  and  O_11 
REMARK    3  A    between atoms: C_2  and  N_4 
ROOT
HETATM    1  C   UNL     1      66.524   7.449   5.327  1.00  0.00     0.156 C 
HETATM    2  N   UNL     1      67.198   7.048   7.738  1.00  0.00    -0.067 N 
HETATM    3  C   UNL     1      67.093   8.055   6.643  1.00  0.00     0.287 C 
HETATM    4  C   UNL     1      66.223   5.947   5.589  1.00  0.00     0.038 C 
HETATM    5  C   UNL     1      65.248   5.814   6.778  1.00  0.00     0.036 C 
HETATM    6  C   UNL     1      67.529   5.255   6.023  1.00  0.00     0.036 C 
HETATM    7  C   UNL     1      65.848   6.505   8.014  1.00  0.00     0.235 C 
HETATM    8  C   UNL     1      68.075   5.943   7.285  1.00  0.00     0.235 C 
HETATM    9  H   UNL     1      67.582   7.478   8.579  1.00  0.00     0.280 HD
ENDROOT
BRANCH   1  10
HETATM   10  C   UNL     1      65.241   8.161   4.929  1.00  0.00    -0.037 C 
BRANCH  10  11
HETATM   11  N   UNL     1      64.177   8.751   4.599  1.00  0.00    -0.367 N 
ATOM     12  HN2 UNL     1      65.049   8.302   4.879  1.00  0.00     0.165 HD
ATOM     13  HN1 UNL     1      63.316   9.229   4.331  1.00  0.00     0.165 HD
ENDBRANCH  10  11
ENDBRANCH   1  10
BRANCH   1  14
HETATM   14  O   UNL     1      67.490   7.545   4.270  1.00  0.00    -0.374 OA
HETATM   15  H   UNL     1      67.168   8.162   3.592  1.00  0.00     0.212 HD
ENDBRANCH   1  14
TORSDOF 3
ENDMDL
MODEL 6
REMARK VINA RESULT:      -3.7      5.299      6.622
REMARK  3 active torsions:
REMARK  status: ('A' for Active; 'I' for Inactive)
REMARK    1  A    between atoms: C_1  and  C_2 
REMARK    2  A    between atoms: C_1  and  O_11 
REMARK    3  A    between atoms: C_2  and  N_4 
ROOT
HETATM    1  C   UNL     1      62.021   9.250   4.069  1.00  0.00     0.156 C 
HETATM    2  N   UNL     1      63.173   7.605   2.521  1.00  0.00    -0.067 N 
HETATM    3  C   UNL     1      62.803   9.033   2.741  1.00  0.00     0.287 C 
HETATM    4  C   UNL     1      61.888   7.868   4.770  1.00  0.00     0.038 C 
HETATM    5  C   UNL     1      63.291   7.263   4.993  1.00  0.00     0.036 C 
HETATM    6  C   UNL     1      61.151   6.906   3.819  1.00  0.00     0.036 C 
HETATM    7  C   UNL     1      64.025   7.157   3.646  1.00  0.00     0.235 C 
HETATM    8  C   UNL     1      61.936   6.790   2.502  1.00  0.00     0.235 C 
HETATM    9  H   UNL     1      63.674   7.501   1.638  1.00  0.00     0.280 HD
ENDROOT
BRANCH   1  10
HETATM   10  C   UNL     1      62.776  10.207   4.976  1.00  0.00    -0.037 C 
BRANCH  10  11
HETATM   11  N   UNL     1      63.403  11.001   5.728  1.00  0.00    -0.367 N 
ATOM     12  HN2 UNL     1      62.877  10.348   5.146  1.00  0.00     0.165 HD
ATOM     13  HN1 UNL     1      63.911  11.644   6.337  1.00  0.00     0.165 HD
ENDBRANCH  10  11
ENDBRANCH   1  10
BRANCH   1  14
HETATM   14  O   UNL     1      60.705   9.756   3.802  1.00  0.00    -0.374 OA
HETATM   15  H   UNL     1      60.114   9.018   3.581  1.00  0.00     0.212 HD
ENDBRANCH   1  14
TORSDOF 3
ENDMDL
MODEL 7
REMARK VINA RESULT:      -3.7      2.034      3.239
REMARK  3 active torsions:
REMARK  status: ('A' for Active; 'I' for Inactive)
REMARK    1  A    between atoms: C_1  and  C_2 
REMARK    2  A    between atoms: C_1  and  O_11 
REMARK    3  A    between atoms: C_2  and  N_4 
ROOT
HETATM    1  C   UNL     1      66.635   4.591   6.870  1.00  0.00     0.156 C 
HETATM    2  N   UNL     1      65.791   6.793   7.803  1.00  0.00    -0.067 N 
HETATM    3  C   UNL     1      65.407   5.434   7.321  1.00  0.00     0.287 C 
HETATM    4  C   UNL     1      67.909   5.456   7.088  1.00  0.00     0.038 C 
HETATM    5  C   UNL     1      67.993   5.890   8.567  1.00  0.00     0.036 C 
HETATM    6  C   UNL     1      67.767   6.752   6.267  1.00  0.00     0.036 C 
HETATM    7  C   UNL     1      66.710   6.646   8.954  1.00  0.00     0.235 C 
HETATM    8  C   UNL     1      66.499   7.501   6.712  1.00  0.00     0.235 C 
HETATM    9  H   UNL     1      64.961   7.317   8.080  1.00  0.00     0.280 HD
ENDROOT
BRANCH   1  10
HETATM   10  C   UNL     1      66.738   3.321   7.698  1.00  0.00    -0.037 C 
BRANCH  10  11
HETATM   11  N   UNL     1      66.823   2.268   8.386  1.00  0.00    -0.367 N 
ATOM     12  HN2 UNL     1      66.728   3.130   7.848  1.00  0.00     0.165 HD
ATOM     13  HN1 UNL     1      66.892   1.416   8.942  1.00  0.00     0.165 HD
ENDBRANCH  10  11
ENDBRANCH   1  10
BRANCH   1  14
HETATM   14  O   UNL     1      66.536   4.266   5.475  1.00  0.00    -0.374 OA
HETATM   15  H   UNL     1      65.782   4.738   5.086  1.00  0.00     0.212 HD
ENDBRANCH   1  14
TORSDOF 3
ENDMDL
MODEL 8
REMARK VINA RESULT:      -3.6      1.457      3.425
REMARK  3 active torsions:
REMARK  status: ('A' for Active; 'I' for Inactive)
REMARK    1  A    between atoms: C_1  and  C_2 
REMARK    2  A    between atoms: C_1  and  O_11 
REMARK    3  A    between atoms: C_2  and  N_4 
ROOT
HETATM    1  C   UNL     1      66.816   7.246   7.047  1.00  0.00     0.156 C 
HETATM    2  N   UNL     1      66.863   6.032   4.821  1.00  0.00    -0.067 N 
HETATM    3  C   UNL     1      67.678   6.723   5.861  1.00  0.00     0.287 C 
HETATM    4  C   UNL     1      65.338   6.853   6.766  1.00  0.00     0.038 C 
HETATM    5  C   UNL     1      65.235   5.324   6.581  1.00  0.00     0.036 C 
HETATM    6  C   UNL     1      64.912   7.479   5.424  1.00  0.00     0.036 C 
HETATM    7  C   UNL     1      66.174   4.880   5.447  1.00  0.00     0.235 C 
HETATM    8  C   UNL     1      65.845   6.978   4.309  1.00  0.00     0.235 C 
HETATM    9  H   UNL     1      67.460   5.712   4.059  1.00  0.00     0.280 HD
ENDROOT
BRANCH   1  10
HETATM   10  C   UNL     1      67.269   6.612   8.351  1.00  0.00    -0.037 C 
BRANCH  10  11
HETATM   11  N   UNL     1      67.646   6.086   9.433  1.00  0.00    -0.367 N 
ATOM     12  HN2 UNL     1      67.310   6.500   8.563  1.00  0.00     0.165 HD
ATOM     13  HN1 UNL     1      67.950   5.660  10.309  1.00  0.00     0.165 HD
ENDBRANCH  10  11
ENDBRANCH   1  10
BRANCH   1  14
HETATM   14  O   UNL     1      66.900   8.677   7.137  1.00  0.00    -0.374 OA
HETATM   15  H   UNL     1      66.574   8.965   8.005  1.00  0.00     0.212 HD
ENDBRANCH   1  14
TORSDOF 3
ENDMDL
MODEL 9
REMARK VINA RESULT:      -3.6      6.914      7.700
REMARK  3 active torsions:
REMARK  status: ('A' for Active; 'I' for Inactive)
REMARK    1  A    between atoms: C_1  and  C_2 
REMARK    2  A    between atoms: C_1  and  O_11 
REMARK    3  A    between atoms: C_2  and  N_4 
ROOT
HETATM    1  C   UNL     1      61.997   8.691   3.631  1.00  0.00     0.156 C 
HETATM    2  N   UNL     1      60.324   7.515   2.131  1.00  0.00    -0.067 N 
HETATM    3  C   UNL     1      60.536   8.184   3.447  1.00  0.00     0.287 C 
HETATM    4  C   UNL     1      62.785   8.341   2.337  1.00  0.00     0.038 C 
HETATM    5  C   UNL     1      62.082   8.972   1.116  1.00  0.00     0.036 C 
HETATM    6  C   UNL     1      62.727   6.816   2.126  1.00  0.00     0.036 C 
HETATM    7  C   UNL     1      60.625   8.484   1.053  1.00  0.00     0.235 C 
HETATM    8  C   UNL     1      61.258   6.372   2.023  1.00  0.00     0.235 C 
HETATM    9  H   UNL     1      59.360   7.190   2.052  1.00  0.00     0.280 HD
ENDROOT
BRANCH   1  10
HETATM   10  C   UNL     1      62.012  10.196   3.842  1.00  0.00    -0.037 C 
BRANCH  10  11
HETATM   11  N   UNL     1      62.025  11.444   4.016  1.00  0.00    -0.367 N 
ATOM     12  HN2 UNL     1      62.025  10.439   3.843  1.00  0.00     0.165 HD
ATOM     13  HN1 UNL     1      62.036  12.455   4.157  1.00  0.00     0.165 HD
ENDBRANCH  10  11
ENDBRANCH   1  10
BRANCH   1  14
HETATM   14  O   UNL     1      62.623   8.030   4.741  1.00  0.00    -0.374 OA
HETATM   15  H   UNL     1      61.952   7.818   5.411  1.00  0.00     0.212 HD
ENDBRANCH   1  14
TORSDOF 3
ENDMDL
