MODEL 1
REMARK VINA RESULT:      -5.3      0.000      0.000
REMARK  5 active torsions:
REMARK  status: ('A' for Active; 'I' for Inactive)
REMARK    1  A    between atoms: C_1  and  C_3 
REMARK    2  A    between atoms: C_4  and  C_6 
REMARK    3  A    between atoms: C_7  and  C_11 
REMARK    4  A    between atoms: C_11  and  C_12 
REMARK    5  A    between atoms: C_12  and  C_13 
ROOT
HETATM    1  C   UNL     1      66.406   6.719   7.323  1.00  0.00     0.153 A 
HETATM    2  O   UNL     1      65.241   7.335   6.930  1.00  0.00    -0.295 OA
HETATM    3  C   UNL     1      65.499   7.943   5.745  1.00  0.00     0.129 A 
HETATM    4  C   UNL     1      67.386   6.950   6.371  1.00  0.00     0.048 A 
HETATM    5  C   UNL     1      66.798   7.737   5.354  1.00  0.00     0.050 A 
ENDROOT
BRANCH   3   6
HETATM    6  C   UNL     1      64.453   8.659   5.114  1.00  0.00    -0.041 C 
HETATM    7  C   UNL     1      63.509   9.241   4.656  1.00  0.00    -0.099 C 
BRANCH   7   8
HETATM    8  C   UNL     1      62.315   9.946   4.165  1.00  0.00     0.094 C 
BRANCH   8   9
HETATM    9  C   UNL     1      61.751   9.315   2.888  1.00  0.00     0.012 C 
BRANCH   9  10
HETATM   10  C   UNL     1      61.832  10.234   1.664  1.00  0.00    -0.004 C 
HETATM   11  C   UNL     1      61.797  11.703   2.062  1.00  0.00     0.005 C 
ENDBRANCH   9  10
ENDBRANCH   8   9
ENDBRANCH   7   8
ENDBRANCH   3   6
BRANCH   1  12
HETATM   12  C   UNL     1      66.427   5.991   8.563  1.00  0.00     0.234 C 
HETATM   13  O   UNL     1      66.117   4.829   8.778  1.00  0.00    -0.642 OA
HETATM   14  O   UNL     1      66.860   6.771   9.584  1.00  0.00    -0.642 OA
ENDBRANCH   1  12
TORSDOF 5
ENDMDL
MODEL 2
REMARK VINA RESULT:      -5.2      2.672      6.583
REMARK  5 active torsions:
REMARK  status: ('A' for Active; 'I' for Inactive)
REMARK    1  A    between atoms: C_1  and  C_3 
REMARK    2  A    between atoms: C_4  and  C_6 
REMARK    3  A    between atoms: C_7  and  C_11 
REMARK    4  A    between atoms: C_11  and  C_12 
REMARK    5  A    between atoms: C_12  and  C_13 
ROOT
HETATM    1  C   UNL     1      63.385   9.800   4.914  1.00  0.00     0.153 A 
HETATM    2  O   UNL     1      64.528   9.354   5.535  1.00  0.00    -0.295 OA
HETATM    3  C   UNL     1      64.832   8.152   4.982  1.00  0.00     0.129 A 
HETATM    4  C   UNL     1      62.985   8.866   3.972  1.00  0.00     0.048 A 
HETATM    5  C   UNL     1      63.920   7.806   4.016  1.00  0.00     0.050 A 
ENDROOT
BRANCH   3   6
HETATM    6  C   UNL     1      65.979   7.467   5.449  1.00  0.00    -0.041 C 
HETATM    7  C   UNL     1      66.898   6.804   5.843  1.00  0.00    -0.099 C 
BRANCH   7   8
HETATM    8  C   UNL     1      67.982   5.925   6.308  1.00  0.00     0.094 C 
BRANCH   8   9
HETATM    9  C   UNL     1      67.633   5.215   7.620  1.00  0.00     0.012 C 
BRANCH   9  10
HETATM   10  C   UNL     1      67.896   6.067   8.866  1.00  0.00    -0.004 C 
HETATM   11  C   UNL     1      66.599   6.525   9.517  1.00  0.00     0.005 C 
ENDBRANCH   9  10
ENDBRANCH   8   9
ENDBRANCH   7   8
ENDBRANCH   3   6
BRANCH   1  12
HETATM   12  C   UNL     1      62.825  11.064   5.308  1.00  0.00     0.234 C 
HETATM   13  O   UNL     1      62.070  11.798   4.688  1.00  0.00    -0.642 OA
HETATM   14  O   UNL     1      63.240  11.420   6.549  1.00  0.00    -0.642 OA
ENDBRANCH   1  12
TORSDOF 5
ENDMDL
MODEL 3
REMARK VINA RESULT:      -4.9      3.055      6.725
REMARK  5 active torsions:
REMARK  status: ('A' for Active; 'I' for Inactive)
REMARK    1  A    between atoms: C_1  and  C_3 
REMARK    2  A    between atoms: C_4  and  C_6 
REMARK    3  A    between atoms: C_7  and  C_11 
REMARK    4  A    between atoms: C_11  and  C_12 
REMARK    5  A    between atoms: C_12  and  C_13 
ROOT
HETATM    1  C   UNL     1      62.056   9.944   3.601  1.00  0.00     0.153 A 
HETATM    2  O   UNL     1      63.043   9.549   4.473  1.00  0.00    -0.295 OA
HETATM    3  C   UNL     1      62.919   8.206   4.624  1.00  0.00     0.129 A 
HETATM    4  C   UNL     1      61.322   8.835   3.212  1.00  0.00     0.048 A 
HETATM    5  C   UNL     1      61.881   7.716   3.872  1.00  0.00     0.050 A 
ENDROOT
BRANCH   3   6
HETATM    6  C   UNL     1      63.825   7.538   5.482  1.00  0.00    -0.041 C 
HETATM    7  C   UNL     1      64.563   7.032   6.282  1.00  0.00    -0.099 C 
BRANCH   7   8
HETATM    8  C   UNL     1      65.429   6.451   7.320  1.00  0.00     0.094 C 
BRANCH   8   9
HETATM    9  C   UNL     1      66.851   7.021   7.277  1.00  0.00     0.012 C 
BRANCH   9  10
HETATM   10  C   UNL     1      67.632   6.622   6.020  1.00  0.00    -0.004 C 
HETATM   11  C   UNL     1      67.964   7.831   5.158  1.00  0.00     0.005 C 
ENDBRANCH   9  10
ENDBRANCH   8   9
ENDBRANCH   7   8
ENDBRANCH   3   6
BRANCH   1  12
HETATM   12  C   UNL     1      61.946  11.335   3.256  1.00  0.00     0.234 C 
HETATM   13  O   UNL     1      61.924  11.855   2.151  1.00  0.00    -0.642 OA
HETATM   14  O   UNL     1      61.861  12.111   4.365  1.00  0.00    -0.642 OA
ENDBRANCH   1  12
TORSDOF 5
ENDMDL
MODEL 4
REMARK VINA RESULT:      -4.5      4.709      6.967
REMARK  5 active torsions:
REMARK  status: ('A' for Active; 'I' for Inactive)
REMARK    1  A    between atoms: C_1  and  C_3 
REMARK    2  A    between atoms: C_4  and  C_6 
REMARK    3  A    between atoms: C_7  and  C_11 
REMARK    4  A    between atoms: C_11  and  C_12 
REMARK    5  A    between atoms: C_12  and  C_13 
ROOT
HETATM    1  C   UNL     1      61.951   9.903   2.949  1.00  0.00     0.153 A 
HETATM    2  O   UNL     1      61.671   9.236   4.119  1.00  0.00    -0.295 OA
HETATM    3  C   UNL     1      61.809   7.911   3.858  1.00  0.00     0.129 A 
HETATM    4  C   UNL     1      62.264   8.981   1.963  1.00  0.00     0.048 A 
HETATM    5  C   UNL     1      62.173   7.698   2.552  1.00  0.00     0.050 A 
ENDROOT
BRANCH   3   6
HETATM    6  C   UNL     1      61.574   6.991   4.908  1.00  0.00    -0.041 C 
HETATM    7  C   UNL     1      61.279   6.223   5.781  1.00  0.00    -0.099 C 
BRANCH   7   8
HETATM    8  C   UNL     1      60.842   5.282   6.823  1.00  0.00     0.094 C 
BRANCH   8   9
HETATM    9  C   UNL     1      59.749   5.874   7.721  1.00  0.00     0.012 C 
BRANCH   9  10
HETATM   10  C   UNL     1      58.406   6.060   7.007  1.00  0.00    -0.004 C 
HETATM   11  C   UNL     1      57.404   6.800   7.882  1.00  0.00     0.005 C 
ENDBRANCH   9  10
ENDBRANCH   8   9
ENDBRANCH   7   8
ENDBRANCH   3   6
BRANCH   1  12
HETATM   12  C   UNL     1      61.879  11.338   2.930  1.00  0.00     0.234 C 
HETATM   13  O   UNL     1      61.848  12.095   1.971  1.00  0.00    -0.642 OA
HETATM   14  O   UNL     1      61.845  11.846   4.187  1.00  0.00    -0.642 OA
ENDBRANCH   1  12
TORSDOF 5
ENDMDL
MODEL 5
REMARK VINA RESULT:      -4.4      4.926      5.507
REMARK  5 active torsions:
REMARK  status: ('A' for Active; 'I' for Inactive)
REMARK    1  A    between atoms: C_1  and  C_3 
REMARK    2  A    between atoms: C_4  and  C_6 
REMARK    3  A    between atoms: C_7  and  C_11 
REMARK    4  A    between atoms: C_11  and  C_12 
REMARK    5  A    between atoms: C_12  and  C_13 
ROOT
HETATM    1  C   UNL     1      59.777   5.417   8.025  1.00  0.00     0.153 A 
HETATM    2  O   UNL     1      60.481   6.435   7.425  1.00  0.00    -0.295 OA
HETATM    3  C   UNL     1      61.333   5.856   6.542  1.00  0.00     0.129 A 
HETATM    4  C   UNL     1      60.199   4.205   7.505  1.00  0.00     0.048 A 
HETATM    5  C   UNL     1      61.200   4.490   6.548  1.00  0.00     0.050 A 
ENDROOT
BRANCH   3   6
HETATM    6  C   UNL     1      62.185   6.692   5.781  1.00  0.00    -0.041 C 
HETATM    7  C   UNL     1      62.844   7.474   5.155  1.00  0.00    -0.099 C 
BRANCH   7   8
HETATM    8  C   UNL     1      63.608   8.492   4.416  1.00  0.00     0.094 C 
BRANCH   8   9
HETATM    9  C   UNL     1      63.017   9.897   4.583  1.00  0.00     0.012 C 
BRANCH   9  10
HETATM   10  C   UNL     1      61.719  10.111   3.798  1.00  0.00    -0.004 C 
HETATM   11  C   UNL     1      61.983  10.258   2.306  1.00  0.00     0.005 C 
ENDBRANCH   9  10
ENDBRANCH   8   9
ENDBRANCH   7   8
ENDBRANCH   3   6
BRANCH   1  12
HETATM   12  C   UNL     1      58.793   5.743   9.021  1.00  0.00     0.234 C 
HETATM   13  O   UNL     1      58.308   6.830   9.298  1.00  0.00    -0.642 OA
HETATM   14  O   UNL     1      58.400   4.639   9.703  1.00  0.00    -0.642 OA
ENDBRANCH   1  12
TORSDOF 5
ENDMDL
MODEL 6
REMARK VINA RESULT:      -4.3      2.967      6.487
REMARK  5 active torsions:
REMARK  status: ('A' for Active; 'I' for Inactive)
REMARK    1  A    between atoms: C_1  and  C_3 
REMARK    2  A    between atoms: C_4  and  C_6 
REMARK    3  A    between atoms: C_7  and  C_11 
REMARK    4  A    between atoms: C_11  and  C_12 
REMARK    5  A    between atoms: C_12  and  C_13 
ROOT
HETATM    1  C   UNL     1      62.986   9.642   4.876  1.00  0.00     0.153 A 
HETATM    2  O   UNL     1      63.395   8.728   5.818  1.00  0.00    -0.295 OA
HETATM    3  C   UNL     1      63.556   7.544   5.173  1.00  0.00     0.129 A 
HETATM    4  C   UNL     1      62.896   9.016   3.643  1.00  0.00     0.048 A 
HETATM    5  C   UNL     1      63.265   7.664   3.837  1.00  0.00     0.050 A 
ENDROOT
BRANCH   3   6
HETATM    6  C   UNL     1      63.979   6.421   5.923  1.00  0.00    -0.041 C 
HETATM    7  C   UNL     1      64.305   5.412   6.484  1.00  0.00    -0.099 C 
BRANCH   7   8
HETATM    8  C   UNL     1      64.692   4.135   7.104  1.00  0.00     0.094 C 
BRANCH   8   9
HETATM    9  C   UNL     1      65.962   3.547   6.480  1.00  0.00     0.012 C 
BRANCH   9  10
HETATM   10  C   UNL     1      67.031   4.598   6.163  1.00  0.00    -0.004 C 
HETATM   11  C   UNL     1      68.073   4.689   7.269  1.00  0.00     0.005 C 
ENDBRANCH   9  10
ENDBRANCH   8   9
ENDBRANCH   7   8
ENDBRANCH   3   6
BRANCH   1  12
HETATM   12  C   UNL     1      62.733  10.997   5.283  1.00  0.00     0.234 C 
HETATM   13  O   UNL     1      62.093  11.866   4.710  1.00  0.00    -0.642 OA
HETATM   14  O   UNL     1      63.318  11.270   6.475  1.00  0.00    -0.642 OA
ENDBRANCH   1  12
TORSDOF 5
ENDMDL
MODEL 7
REMARK VINA RESULT:      -4.2      4.683      6.154
REMARK  5 active torsions:
REMARK  status: ('A' for Active; 'I' for Inactive)
REMARK    1  A    between atoms: C_1  and  C_3 
REMARK    2  A    between atoms: C_4  and  C_6 
REMARK    3  A    between atoms: C_7  and  C_11 
REMARK    4  A    between atoms: C_11  and  C_12 
REMARK    5  A    between atoms: C_12  and  C_13 
ROOT
HETATM    1  C   UNL     1      59.752   5.827   7.756  1.00  0.00     0.153 A 
HETATM    2  O   UNL     1      60.730   6.762   7.513  1.00  0.00    -0.295 OA
HETATM    3  C   UNL     1      61.429   6.328   6.433  1.00  0.00     0.129 A 
HETATM    4  C   UNL     1      59.851   4.811   6.819  1.00  0.00     0.048 A 
HETATM    5  C   UNL     1      60.931   5.137   5.967  1.00  0.00     0.050 A 
ENDROOT
BRANCH   3   6
HETATM    6  C   UNL     1      62.507   7.118   5.967  1.00  0.00    -0.041 C 
HETATM    7  C   UNL     1      63.453   7.707   5.524  1.00  0.00    -0.099 C 
BRANCH   7   8
HETATM    8  C   UNL     1      64.628   8.367   4.934  1.00  0.00     0.094 C 
BRANCH   8   9
HETATM    9  C   UNL     1      65.914   8.071   5.712  1.00  0.00     0.012 C 
BRANCH   9  10
HETATM   10  C   UNL     1      67.110   7.738   4.812  1.00  0.00    -0.004 C 
HETATM   11  C   UNL     1      66.905   6.425   4.071  1.00  0.00     0.005 C 
ENDBRANCH   9  10
ENDBRANCH   8   9
ENDBRANCH   7   8
ENDBRANCH   3   6
BRANCH   1  12
HETATM   12  C   UNL     1      58.852   6.029   8.859  1.00  0.00     0.234 C 
HETATM   13  O   UNL     1      58.198   7.021   9.146  1.00  0.00    -0.642 OA
HETATM   14  O   UNL     1      58.775   4.923   9.640  1.00  0.00    -0.642 OA
ENDBRANCH   1  12
TORSDOF 5
ENDMDL
MODEL 8
REMARK VINA RESULT:      -4.2      3.043      7.186
REMARK  5 active torsions:
REMARK  status: ('A' for Active; 'I' for Inactive)
REMARK    1  A    between atoms: C_1  and  C_3 
REMARK    2  A    between atoms: C_4  and  C_6 
REMARK    3  A    between atoms: C_7  and  C_11 
REMARK    4  A    between atoms: C_11  and  C_12 
REMARK    5  A    between atoms: C_12  and  C_13 
ROOT
HETATM    1  C   UNL     1      62.385   9.194   3.009  1.00  0.00     0.153 A 
HETATM    2  O   UNL     1      63.417   8.414   3.476  1.00  0.00    -0.295 OA
HETATM    3  C   UNL     1      63.757   8.901   4.696  1.00  0.00     0.129 A 
HETATM    4  C   UNL     1      62.088  10.165   3.951  1.00  0.00     0.048 A 
HETATM    5  C   UNL     1      62.972   9.974   5.038  1.00  0.00     0.050 A 
ENDROOT
BRANCH   3   6
HETATM    6  C   UNL     1      64.807   8.270   5.404  1.00  0.00    -0.041 C 
HETATM    7  C   UNL     1      65.759   7.766   5.933  1.00  0.00    -0.099 C 
BRANCH   7   8
HETATM    8  C   UNL     1      66.972   7.187   6.531  1.00  0.00     0.094 C 
BRANCH   8   9
HETATM    9  C   UNL     1      66.903   7.143   8.061  1.00  0.00     0.012 C 
BRANCH   9  10
HETATM   10  C   UNL     1      67.605   5.924   8.669  1.00  0.00    -0.004 C 
HETATM   11  C   UNL     1      68.075   4.953   7.596  1.00  0.00     0.005 C 
ENDBRANCH   9  10
ENDBRANCH   8   9
ENDBRANCH   7   8
ENDBRANCH   3   6
BRANCH   1  12
HETATM   12  C   UNL     1      61.821   8.905   1.719  1.00  0.00     0.234 C 
HETATM   13  O   UNL     1      62.263   9.164   0.610  1.00  0.00    -0.642 OA
HETATM   14  O   UNL     1      60.636   8.255   1.835  1.00  0.00    -0.642 OA
ENDBRANCH   1  12
TORSDOF 5
ENDMDL
MODEL 9
REMARK VINA RESULT:      -4.2      9.504     11.710
REMARK  5 active torsions:
REMARK  status: ('A' for Active; 'I' for Inactive)
REMARK    1  A    between atoms: C_1  and  C_3 
REMARK    2  A    between atoms: C_4  and  C_6 
REMARK    3  A    between atoms: C_7  and  C_11 
REMARK    4  A    between atoms: C_11  and  C_12 
REMARK    5  A    between atoms: C_12  and  C_13 
ROOT
HETATM    1  C   UNL     1      58.477   4.710   9.035  1.00  0.00     0.153 A 
HETATM    2  O   UNL     1      58.803   4.360  10.324  1.00  0.00    -0.295 OA
HETATM    3  C   UNL     1      58.305   3.115  10.531  1.00  0.00     0.129 A 
HETATM    4  C   UNL     1      57.774   3.672   8.446  1.00  0.00     0.048 A 
HETATM    5  C   UNL     1      57.666   2.645   9.411  1.00  0.00     0.050 A 
ENDROOT
BRANCH   3   6
HETATM    6  C   UNL     1      58.504   2.512  11.796  1.00  0.00    -0.041 C 
HETATM    7  C   UNL     1      58.586   2.039  12.895  1.00  0.00    -0.099 C 
BRANCH   7   8
HETATM    8  C   UNL     1      58.610   1.478  14.255  1.00  0.00     0.094 C 
BRANCH   8   9
HETATM    9  C   UNL     1      58.369  -0.035  14.265  1.00  0.00     0.012 C 
BRANCH   9  10
HETATM   10  C   UNL     1      57.058  -0.449  13.587  1.00  0.00    -0.004 C 
HETATM   11  C   UNL     1      55.845  -0.022  14.401  1.00  0.00     0.005 C 
ENDBRANCH   9  10
ENDBRANCH   8   9
ENDBRANCH   7   8
ENDBRANCH   3   6
BRANCH   1  12
HETATM   12  C   UNL     1      58.882   5.997   8.538  1.00  0.00     0.234 C 
HETATM   13  O   UNL     1      59.584   6.264   7.574  1.00  0.00    -0.642 OA
HETATM   14  O   UNL     1      58.375   6.999   9.298  1.00  0.00    -0.642 OA
ENDBRANCH   1  12
TORSDOF 5
ENDMDL
