MODEL 1
REMARK VINA RESULT:      -5.2      0.000      0.000
REMARK  4 active torsions:
REMARK  status: ('A' for Active; 'I' for Inactive)
REMARK    1  A    between atoms: N_1  and  C_2 
REMARK    2  A    between atoms: C_2  and  C_5 
REMARK    3  A    between atoms: C_8  and  C_10 
REMARK    4  A    between atoms: O_9  and  C_10 
ROOT
HETATM    1  N   UNL     1      64.188   7.337   4.800  1.00  0.00    -0.067 N 
HETATM    2  C   UNL     1      63.915   6.541   6.006  1.00  0.00     0.235 C 
HETATM    3  C   UNL     1      65.396   6.851   4.115  1.00  0.00     0.235 C 
HETATM    4  C   UNL     1      65.089   6.609   6.985  1.00  0.00     0.034 C 
HETATM    5  C   UNL     1      66.622   6.904   5.029  1.00  0.00     0.034 C 
HETATM    6  C   UNL     1      66.386   6.128   6.331  1.00  0.00     0.012 C 
HETATM    7  H   UNL     1      64.339   8.299   5.100  1.00  0.00     0.280 HD
ENDROOT
BRANCH   1   8
HETATM    8  C   UNL     1      63.041   7.319   3.868  1.00  0.00     0.273 C 
BRANCH   8   9
HETATM    9  C   UNL     1      62.630   8.696   3.389  1.00  0.00    -0.033 A 
HETATM   10  C   UNL     1      62.516   9.762   4.295  1.00  0.00     0.009 A 
HETATM   11  C   UNL     1      62.096  11.019   3.860  1.00  0.00     0.001 A 
HETATM   12  C   UNL     1      61.794  11.228   2.515  1.00  0.00     0.000 A 
HETATM   13  C   UNL     1      61.920  10.181   1.602  1.00  0.00     0.001 A 
HETATM   14  C   UNL     1      62.338   8.923   2.036  1.00  0.00     0.009 A 
ENDBRANCH   8   9
ENDBRANCH   1   8
BRANCH   6  15
HETATM   15  C   UNL     1      67.562   6.268   7.299  1.00  0.00     0.168 C 
BRANCH  15  16
HETATM   16  O   UNL     1      67.355   7.357   8.188  1.00  0.00    -0.400 OA
HETATM   17  H   UNL     1      66.576   7.182   8.740  1.00  0.00     0.209 HD
ENDBRANCH  15  16
ENDBRANCH   6  15
TORSDOF 4
ENDMDL
MODEL 2
REMARK VINA RESULT:      -5.1      1.390      1.890
REMARK  4 active torsions:
REMARK  status: ('A' for Active; 'I' for Inactive)
REMARK    1  A    between atoms: N_1  and  C_2 
REMARK    2  A    between atoms: C_2  and  C_5 
REMARK    3  A    between atoms: C_8  and  C_10 
REMARK    4  A    between atoms: O_9  and  C_10 
ROOT
HETATM    1  N   UNL     1      64.032   7.789   5.340  1.00  0.00    -0.067 N 
HETATM    2  C   UNL     1      65.275   8.574   5.384  1.00  0.00     0.235 C 
HETATM    3  C   UNL     1      63.997   6.803   6.431  1.00  0.00     0.235 C 
HETATM    4  C   UNL     1      66.500   7.666   5.258  1.00  0.00     0.034 C 
HETATM    5  C   UNL     1      65.189   5.844   6.363  1.00  0.00     0.034 C 
HETATM    6  C   UNL     1      66.522   6.604   6.358  1.00  0.00     0.012 C 
HETATM    7  H   UNL     1      64.015   7.299   4.446  1.00  0.00     0.280 HD
ENDROOT
BRANCH   1   8
HETATM    8  C   UNL     1      62.839   8.658   5.412  1.00  0.00     0.273 C 
BRANCH   8   9
HETATM    9  C   UNL     1      62.519   9.356   4.106  1.00  0.00    -0.033 A 
HETATM   10  C   UNL     1      62.169  10.715   4.090  1.00  0.00     0.009 A 
HETATM   11  C   UNL     1      61.834  11.346   2.893  1.00  0.00     0.001 A 
HETATM   12  C   UNL     1      61.853  10.630   1.697  1.00  0.00     0.000 A 
HETATM   13  C   UNL     1      62.217   9.284   1.697  1.00  0.00     0.001 A 
HETATM   14  C   UNL     1      62.551   8.650   2.894  1.00  0.00     0.009 A 
ENDBRANCH   8   9
ENDBRANCH   1   8
BRANCH   6  15
HETATM   15  C   UNL     1      67.713   5.663   6.177  1.00  0.00     0.168 C 
BRANCH  15  16
HETATM   16  O   UNL     1      67.507   4.798   5.069  1.00  0.00    -0.400 OA
HETATM   17  H   UNL     1      67.682   3.882   5.335  1.00  0.00     0.209 HD
ENDBRANCH  15  16
ENDBRANCH   6  15
TORSDOF 4
ENDMDL
MODEL 3
REMARK VINA RESULT:      -4.9      1.385      2.265
REMARK  4 active torsions:
REMARK  status: ('A' for Active; 'I' for Inactive)
REMARK    1  A    between atoms: N_1  and  C_2 
REMARK    2  A    between atoms: C_2  and  C_5 
REMARK    3  A    between atoms: C_8  and  C_10 
REMARK    4  A    between atoms: O_9  and  C_10 
ROOT
HETATM    1  N   UNL     1      64.240   7.816   5.290  1.00  0.00    -0.067 N 
HETATM    2  C   UNL     1      65.591   8.231   5.696  1.00  0.00     0.235 C 
HETATM    3  C   UNL     1      63.610   6.995   6.335  1.00  0.00     0.235 C 
HETATM    4  C   UNL     1      66.482   7.016   5.963  1.00  0.00     0.034 C 
HETATM    5  C   UNL     1      64.437   5.746   6.648  1.00  0.00     0.034 C 
HETATM    6  C   UNL     1      65.877   6.108   7.036  1.00  0.00     0.012 C 
HETATM    7  H   UNL     1      64.338   7.259   4.442  1.00  0.00     0.280 HD
ENDROOT
BRANCH   1   8
HETATM    8  C   UNL     1      63.384   8.980   4.982  1.00  0.00     0.273 C 
BRANCH   8   9
HETATM    9  C   UNL     1      62.846   8.977   3.566  1.00  0.00    -0.033 A 
HETATM   10  C   UNL     1      63.007   7.852   2.744  1.00  0.00     0.009 A 
HETATM   11  C   UNL     1      62.548   7.865   1.427  1.00  0.00     0.001 A 
HETATM   12  C   UNL     1      61.917   8.999   0.918  1.00  0.00     0.000 A 
HETATM   13  C   UNL     1      61.735  10.118   1.731  1.00  0.00     0.001 A 
HETATM   14  C   UNL     1      62.195  10.107   3.048  1.00  0.00     0.009 A 
ENDBRANCH   8   9
ENDBRANCH   1   8
BRANCH   6  15
HETATM   15  C   UNL     1      66.742   4.865   7.241  1.00  0.00     0.168 C 
BRANCH  15  16
HETATM   16  O   UNL     1      66.442   4.243   8.483  1.00  0.00    -0.400 OA
HETATM   17  H   UNL     1      65.480   4.168   8.585  1.00  0.00     0.209 HD
ENDBRANCH  15  16
ENDBRANCH   6  15
TORSDOF 4
ENDMDL
MODEL 4
REMARK VINA RESULT:      -4.9      2.596      6.253
REMARK  4 active torsions:
REMARK  status: ('A' for Active; 'I' for Inactive)
REMARK    1  A    between atoms: N_1  and  C_2 
REMARK    2  A    between atoms: C_2  and  C_5 
REMARK    3  A    between atoms: C_8  and  C_10 
REMARK    4  A    between atoms: O_9  and  C_10 
ROOT
HETATM    1  N   UNL     1      63.594   8.049   4.343  1.00  0.00    -0.067 N 
HETATM    2  C   UNL     1      62.687   8.003   3.186  1.00  0.00     0.235 C 
HETATM    3  C   UNL     1      63.044   8.908   5.404  1.00  0.00     0.235 C 
HETATM    4  C   UNL     1      62.461   9.403   2.611  1.00  0.00     0.034 C 
HETATM    5  C   UNL     1      62.805  10.336   4.907  1.00  0.00     0.034 C 
HETATM    6  C   UNL     1      61.900  10.355   3.668  1.00  0.00     0.012 C 
HETATM    7  H   UNL     1      64.477   8.442   4.020  1.00  0.00     0.280 HD
ENDROOT
BRANCH   1   8
HETATM    8  C   UNL     1      63.859   6.697   4.878  1.00  0.00     0.273 C 
BRANCH   8   9
HETATM    9  C   UNL     1      65.208   6.569   5.555  1.00  0.00    -0.033 A 
HETATM   10  C   UNL     1      66.389   6.567   4.798  1.00  0.00     0.009 A 
HETATM   11  C   UNL     1      67.628   6.406   5.418  1.00  0.00     0.001 A 
HETATM   12  C   UNL     1      67.702   6.254   6.801  1.00  0.00     0.000 A 
HETATM   13  C   UNL     1      66.537   6.272   7.567  1.00  0.00     0.001 A 
HETATM   14  C   UNL     1      65.296   6.431   6.949  1.00  0.00     0.009 A 
ENDBRANCH   8   9
ENDBRANCH   1   8
BRANCH   6  15
HETATM   15  C   UNL     1      61.746  11.765   3.098  1.00  0.00     0.168 C 
BRANCH  15  16
HETATM   16  O   UNL     1      62.151  11.803   1.736  1.00  0.00    -0.400 OA
HETATM   17  H   UNL     1      62.438  12.702   1.508  1.00  0.00     0.209 HD
ENDBRANCH  15  16
ENDBRANCH   6  15
TORSDOF 4
ENDMDL
MODEL 5
REMARK VINA RESULT:      -4.7      1.463      2.066
REMARK  4 active torsions:
REMARK  status: ('A' for Active; 'I' for Inactive)
REMARK    1  A    between atoms: N_1  and  C_2 
REMARK    2  A    between atoms: C_2  and  C_5 
REMARK    3  A    between atoms: C_8  and  C_10 
REMARK    4  A    between atoms: O_9  and  C_10 
ROOT
HETATM    1  N   UNL     1      65.094   6.706   5.218  1.00  0.00    -0.067 N 
HETATM    2  C   UNL     1      64.732   5.371   5.720  1.00  0.00     0.235 C 
HETATM    3  C   UNL     1      66.543   6.801   4.985  1.00  0.00     0.235 C 
HETATM    4  C   UNL     1      65.457   5.064   7.032  1.00  0.00     0.034 C 
HETATM    5  C   UNL     1      67.340   6.520   6.261  1.00  0.00     0.034 C 
HETATM    6  C   UNL     1      66.975   5.158   6.864  1.00  0.00     0.012 C 
HETATM    7  H   UNL     1      64.826   7.381   5.934  1.00  0.00     0.280 HD
ENDROOT
BRANCH   1   8
HETATM    8  C   UNL     1      64.363   7.035   3.977  1.00  0.00     0.273 C 
BRANCH   8   9
HETATM    9  C   UNL     1      63.576   8.326   4.062  1.00  0.00    -0.033 A 
HETATM   10  C   UNL     1      62.702   8.698   3.030  1.00  0.00     0.009 A 
HETATM   11  C   UNL     1      62.009   9.908   3.090  1.00  0.00     0.001 A 
HETATM   12  C   UNL     1      62.177  10.755   4.184  1.00  0.00     0.000 A 
HETATM   13  C   UNL     1      63.030  10.389   5.224  1.00  0.00     0.001 A 
HETATM   14  C   UNL     1      63.724   9.180   5.166  1.00  0.00     0.009 A 
ENDBRANCH   8   9
ENDBRANCH   1   8
BRANCH   6  15
HETATM   15  C   UNL     1      67.681   4.917   8.198  1.00  0.00     0.168 C 
BRANCH  15  16
HETATM   16  O   UNL     1      66.965   3.973   8.983  1.00  0.00    -0.400 OA
HETATM   17  H   UNL     1      66.659   3.246   8.417  1.00  0.00     0.209 HD
ENDBRANCH  15  16
ENDBRANCH   6  15
TORSDOF 4
ENDMDL
MODEL 6
REMARK VINA RESULT:      -4.7      2.032      3.148
REMARK  4 active torsions:
REMARK  status: ('A' for Active; 'I' for Inactive)
REMARK    1  A    between atoms: N_1  and  C_2 
REMARK    2  A    between atoms: C_2  and  C_5 
REMARK    3  A    between atoms: C_8  and  C_10 
REMARK    4  A    between atoms: O_9  and  C_10 
ROOT
HETATM    1  N   UNL     1      66.112   6.702   6.227  1.00  0.00    -0.067 N 
HETATM    2  C   UNL     1      67.467   6.294   5.826  1.00  0.00     0.235 C 
HETATM    3  C   UNL     1      65.923   6.533   7.677  1.00  0.00     0.235 C 
HETATM    4  C   UNL     1      67.726   4.828   6.183  1.00  0.00     0.034 C 
HETATM    5  C   UNL     1      66.150   5.083   8.110  1.00  0.00     0.034 C 
HETATM    6  C   UNL     1      67.533   4.578   7.680  1.00  0.00     0.012 C 
HETATM    7  H   UNL     1      65.456   6.099   5.733  1.00  0.00     0.280 HD
ENDROOT
BRANCH   1   8
HETATM    8  C   UNL     1      65.832   8.102   5.844  1.00  0.00     0.273 C 
BRANCH   8   9
HETATM    9  C   UNL     1      64.671   8.245   4.883  1.00  0.00    -0.033 A 
HETATM   10  C   UNL     1      63.782   9.325   4.993  1.00  0.00     0.009 A 
HETATM   11  C   UNL     1      62.689   9.434   4.133  1.00  0.00     0.001 A 
HETATM   12  C   UNL     1      62.476   8.470   3.149  1.00  0.00     0.000 A 
HETATM   13  C   UNL     1      63.362   7.401   3.018  1.00  0.00     0.001 A 
HETATM   14  C   UNL     1      64.455   7.290   3.878  1.00  0.00     0.009 A 
ENDBRANCH   8   9
ENDBRANCH   1   8
BRANCH   6  15
HETATM   15  C   UNL     1      67.726   3.097   8.009  1.00  0.00     0.168 C 
BRANCH  15  16
HETATM   16  O   UNL     1      67.351   2.828   9.353  1.00  0.00    -0.400 OA
HETATM   17  H   UNL     1      66.385   2.877   9.436  1.00  0.00     0.209 HD
ENDBRANCH  15  16
ENDBRANCH   6  15
TORSDOF 4
ENDMDL
MODEL 7
REMARK VINA RESULT:      -4.6      3.852      5.181
REMARK  4 active torsions:
REMARK  status: ('A' for Active; 'I' for Inactive)
REMARK    1  A    between atoms: N_1  and  C_2 
REMARK    2  A    between atoms: C_2  and  C_5 
REMARK    3  A    between atoms: C_8  and  C_10 
REMARK    4  A    between atoms: O_9  and  C_10 
ROOT
HETATM    1  N   UNL     1      61.034   6.985   5.127  1.00  0.00    -0.067 N 
HETATM    2  C   UNL     1      59.880   6.399   4.429  1.00  0.00     0.235 C 
HETATM    3  C   UNL     1      61.451   6.135   6.253  1.00  0.00     0.235 C 
HETATM    4  C   UNL     1      58.692   6.231   5.378  1.00  0.00     0.034 C 
HETATM    5  C   UNL     1      60.315   5.933   7.259  1.00  0.00     0.034 C 
HETATM    6  C   UNL     1      59.061   5.364   6.583  1.00  0.00     0.012 C 
HETATM    7  H   UNL     1      60.741   7.893   5.486  1.00  0.00     0.280 HD
ENDROOT
BRANCH   1   8
HETATM    8  C   UNL     1      62.173   7.197   4.210  1.00  0.00     0.273 C 
BRANCH   8   9
HETATM    9  C   UNL     1      62.070   8.475   3.403  1.00  0.00    -0.033 A 
HETATM   10  C   UNL     1      62.085   8.436   2.000  1.00  0.00     0.009 A 
HETATM   11  C   UNL     1      62.032   9.616   1.259  1.00  0.00     0.001 A 
HETATM   12  C   UNL     1      61.956  10.847   1.909  1.00  0.00     0.000 A 
HETATM   13  C   UNL     1      61.923  10.898   3.302  1.00  0.00     0.001 A 
HETATM   14  C   UNL     1      61.977   9.718   4.045  1.00  0.00     0.009 A 
ENDBRANCH   8   9
ENDBRANCH   1   8
BRANCH   6  15
HETATM   15  C   UNL     1      57.885   5.264   7.556  1.00  0.00     0.168 C 
BRANCH  15  16
HETATM   16  O   UNL     1      58.010   6.226   8.595  1.00  0.00    -0.400 OA
HETATM   17  H   UNL     1      58.418   7.033   8.243  1.00  0.00     0.209 HD
ENDBRANCH  15  16
ENDBRANCH   6  15
TORSDOF 4
ENDMDL
MODEL 8
REMARK VINA RESULT:      -4.6      2.753      6.478
REMARK  4 active torsions:
REMARK  status: ('A' for Active; 'I' for Inactive)
REMARK    1  A    between atoms: N_1  and  C_2 
REMARK    2  A    between atoms: C_2  and  C_5 
REMARK    3  A    between atoms: C_8  and  C_10 
REMARK    4  A    between atoms: O_9  and  C_10 
ROOT
HETATM    1  N   UNL     1      65.334   7.480   5.132  1.00  0.00    -0.067 N 
HETATM    2  C   UNL     1      64.760   8.834   5.118  1.00  0.00     0.235 C 
HETATM    3  C   UNL     1      65.151   6.822   3.829  1.00  0.00     0.235 C 
HETATM    4  C   UNL     1      63.264   8.792   4.800  1.00  0.00     0.034 C 
HETATM    5  C   UNL     1      63.672   6.727   3.447  1.00  0.00     0.034 C 
HETATM    6  C   UNL     1      63.000   8.106   3.458  1.00  0.00     0.012 C 
HETATM    7  H   UNL     1      64.838   6.949   5.847  1.00  0.00     0.280 HD
ENDROOT
BRANCH   1   8
HETATM    8  C   UNL     1      66.768   7.503   5.487  1.00  0.00     0.273 C 
BRANCH   8   9
HETATM    9  C   UNL     1      67.114   6.618   6.666  1.00  0.00    -0.033 A 
HETATM   10  C   UNL     1      66.850   7.043   7.978  1.00  0.00     0.009 A 
HETATM   11  C   UNL     1      67.207   6.245   9.065  1.00  0.00     0.001 A 
HETATM   12  C   UNL     1      67.823   5.013   8.855  1.00  0.00     0.000 A 
HETATM   13  C   UNL     1      68.075   4.572   7.557  1.00  0.00     0.001 A 
HETATM   14  C   UNL     1      67.720   5.369   6.467  1.00  0.00     0.009 A 
ENDBRANCH   8   9
ENDBRANCH   1   8
BRANCH   6  15
HETATM   15  C   UNL     1      61.498   8.009   3.188  1.00  0.00     0.168 C 
BRANCH  15  16
HETATM   16  O   UNL     1      60.853   9.240   3.488  1.00  0.00    -0.400 OA
HETATM   17  H   UNL     1      61.196   9.936   2.906  1.00  0.00     0.209 HD
ENDBRANCH  15  16
ENDBRANCH   6  15
TORSDOF 4
ENDMDL
MODEL 9
REMARK VINA RESULT:      -4.4      2.372      6.373
REMARK  4 active torsions:
REMARK  status: ('A' for Active; 'I' for Inactive)
REMARK    1  A    between atoms: N_1  and  C_2 
REMARK    2  A    between atoms: C_2  and  C_5 
REMARK    3  A    between atoms: C_8  and  C_10 
REMARK    4  A    between atoms: O_9  and  C_10 
ROOT
HETATM    1  N   UNL     1      64.072   6.720   5.469  1.00  0.00    -0.067 N 
HETATM    2  C   UNL     1      64.765   7.869   4.867  1.00  0.00     0.235 C 
HETATM    3  C   UNL     1      62.910   6.326   4.658  1.00  0.00     0.235 C 
HETATM    4  C   UNL     1      63.827   9.071   4.744  1.00  0.00     0.034 C 
HETATM    5  C   UNL     1      61.913   7.477   4.503  1.00  0.00     0.034 C 
HETATM    6  C   UNL     1      62.585   8.727   3.920  1.00  0.00     0.012 C 
HETATM    7  H   UNL     1      63.751   7.010   6.392  1.00  0.00     0.280 HD
ENDROOT
BRANCH   1   8
HETATM    8  C   UNL     1      64.981   5.566   5.638  1.00  0.00     0.273 C 
BRANCH   8   9
HETATM    9  C   UNL     1      65.952   5.725   6.789  1.00  0.00    -0.033 A 
HETATM   10  C   UNL     1      67.198   5.079   6.765  1.00  0.00     0.009 A 
HETATM   11  C   UNL     1      68.075   5.192   7.844  1.00  0.00     0.001 A 
HETATM   12  C   UNL     1      67.722   5.957   8.954  1.00  0.00     0.000 A 
HETATM   13  C   UNL     1      66.494   6.618   8.982  1.00  0.00     0.001 A 
HETATM   14  C   UNL     1      65.615   6.505   7.905  1.00  0.00     0.009 A 
ENDBRANCH   8   9
ENDBRANCH   1   8
BRANCH   6  15
HETATM   15  C   UNL     1      61.626   9.917   3.866  1.00  0.00     0.168 C 
BRANCH  15  16
HETATM   16  O   UNL     1      62.256  11.093   4.356  1.00  0.00    -0.400 OA
HETATM   17  H   UNL     1      63.202  11.067   4.142  1.00  0.00     0.209 HD
ENDBRANCH  15  16
ENDBRANCH   6  15
TORSDOF 4
ENDMDL
