MODEL 1
REMARK VINA RESULT:      -4.5      0.000      0.000
REMARK  6 active torsions:
REMARK  status: ('A' for Active; 'I' for Inactive)
REMARK    1  A    between atoms: N_1  and  C_4 
REMARK    2  A    between atoms: C_4  and  C_10 
REMARK    3  A    between atoms: C_5  and  C_12 
REMARK    4  A    between atoms: C_10  and  C_13 
REMARK    5  A    between atoms: N_11  and  C_13 
REMARK    6  A    between atoms: N_11  and  C_12 
ROOT
HETATM    1  N   UNL     1      63.257   9.402   5.597  1.00  0.00    -0.069 N 
HETATM    2  H   UNL     1      62.514   8.815   5.976  1.00  0.00     0.277 HD
HETATM    3  H   UNL     1      63.891   9.705   6.336  1.00  0.00     0.277 HD
ENDROOT
BRANCH   1   4
HETATM    4  C   UNL     1      62.656  10.599   4.985  1.00  0.00     0.245 C 
BRANCH   4   5
HETATM    5  C   UNL     1      61.806  10.207   3.776  1.00  0.00     0.131 C 
BRANCH   5   6
HETATM    6  C   UNL     1      61.805  11.271   2.692  1.00  0.00    -0.076 C 
BRANCH   6   7
HETATM    7  N   UNL     1      61.804  12.155   1.791  1.00  0.00    -0.370 N 
ATOM      8  HN2 UNL     1      61.817  11.463   2.541  1.00  0.00     0.165 HD
ATOM      9  HN1 UNL     1      61.803  12.869   1.063  1.00  0.00     0.165 HD
ENDBRANCH   6   7
ENDBRANCH   5   6
ENDBRANCH   4   5
ENDBRANCH   1   4
BRANCH   1  10
HETATM   10  C   UNL     1      64.027   8.626   4.615  1.00  0.00     0.296 C 
BRANCH  10  11
HETATM   11  C   UNL     1      65.329   8.180   5.194  1.00  0.00     0.078 A 
HETATM   12  O   UNL     1      65.760   8.841   6.308  1.00  0.00    -0.325 OA
HETATM   13  C   UNL     1      66.949   8.289   6.666  1.00  0.00     0.142 A 
HETATM   14  C   UNL     1      67.286   7.273   5.803  1.00  0.00     0.027 A 
HETATM   15  C   UNL     1      66.244   7.206   4.847  1.00  0.00     0.036 A 
ENDBRANCH  10  11
ENDBRANCH   1  10
TORSDOF 6
ENDMDL
MODEL 2
REMARK VINA RESULT:      -4.3      2.495      5.462
REMARK  6 active torsions:
REMARK  status: ('A' for Active; 'I' for Inactive)
REMARK    1  A    between atoms: N_1  and  C_4 
REMARK    2  A    between atoms: C_4  and  C_10 
REMARK    3  A    between atoms: C_5  and  C_12 
REMARK    4  A    between atoms: C_10  and  C_13 
REMARK    5  A    between atoms: N_11  and  C_13 
REMARK    6  A    between atoms: N_11  and  C_12 
ROOT
HETATM    1  N   UNL     1      63.274   8.939   5.577  1.00  0.00    -0.069 N 
HETATM    2  H   UNL     1      63.138   8.717   6.563  1.00  0.00     0.277 HD
HETATM    3  H   UNL     1      62.749   8.297   4.985  1.00  0.00     0.277 HD
ENDROOT
BRANCH   1   4
HETATM    4  C   UNL     1      64.703   8.806   5.249  1.00  0.00     0.245 C 
BRANCH   4   5
HETATM    5  C   UNL     1      65.015   7.375   4.808  1.00  0.00     0.131 C 
BRANCH   5   6
HETATM    6  C   UNL     1      66.489   7.166   4.502  1.00  0.00    -0.076 C 
BRANCH   6   7
HETATM    7  N   UNL     1      67.712   6.992   4.249  1.00  0.00    -0.370 N 
ATOM      8  HN2 UNL     1      66.720   7.100   4.458  1.00  0.00     0.165 HD
ATOM      9  HN1 UNL     1      68.701   6.852   4.044  1.00  0.00     0.165 HD
ENDBRANCH   6   7
ENDBRANCH   5   6
ENDBRANCH   4   5
ENDBRANCH   1   4
BRANCH   1  10
HETATM   10  C   UNL     1      62.790  10.303   5.324  1.00  0.00     0.296 C 
BRANCH  10  11
HETATM   11  C   UNL     1      62.370  10.463   3.901  1.00  0.00     0.078 A 
HETATM   12  O   UNL     1      62.044  11.726   3.499  1.00  0.00    -0.325 OA
HETATM   13  C   UNL     1      61.693  11.651   2.188  1.00  0.00     0.142 A 
HETATM   14  C   UNL     1      61.798  10.357   1.736  1.00  0.00     0.027 A 
HETATM   15  C   UNL     1      62.228   9.586   2.843  1.00  0.00     0.036 A 
ENDBRANCH  10  11
ENDBRANCH   1  10
TORSDOF 6
ENDMDL
MODEL 3
REMARK VINA RESULT:      -4.2      2.061      2.711
REMARK  6 active torsions:
REMARK  status: ('A' for Active; 'I' for Inactive)
REMARK    1  A    between atoms: N_1  and  C_4 
REMARK    2  A    between atoms: C_4  and  C_10 
REMARK    3  A    between atoms: C_5  and  C_12 
REMARK    4  A    between atoms: C_10  and  C_13 
REMARK    5  A    between atoms: N_11  and  C_13 
REMARK    6  A    between atoms: N_11  and  C_12 
ROOT
HETATM    1  N   UNL     1      64.406   8.262   5.753  1.00  0.00    -0.069 N 
HETATM    2  H   UNL     1      64.010   7.434   6.199  1.00  0.00     0.277 HD
HETATM    3  H   UNL     1      64.265   9.088   6.333  1.00  0.00     0.277 HD
ENDROOT
BRANCH   1   4
HETATM    4  C   UNL     1      63.730   8.481   4.464  1.00  0.00     0.245 C 
BRANCH   4   5
HETATM    5  C   UNL     1      62.730   9.633   4.578  1.00  0.00     0.131 C 
BRANCH   5   6
HETATM    6  C   UNL     1      63.191  10.713   5.543  1.00  0.00    -0.076 C 
BRANCH   6   7
HETATM    7  N   UNL     1      63.572  11.610   6.344  1.00  0.00    -0.370 N 
ATOM      8  HN2 UNL     1      63.295  10.872   5.696  1.00  0.00     0.165 HD
ATOM      9  HN1 UNL     1      63.879  12.335   6.991  1.00  0.00     0.165 HD
ENDBRANCH   6   7
ENDBRANCH   5   6
ENDBRANCH   4   5
ENDBRANCH   1   4
BRANCH   1  10
HETATM   10  C   UNL     1      65.851   8.062   5.575  1.00  0.00     0.296 C 
BRANCH  10  11
HETATM   11  C   UNL     1      66.404   7.187   6.650  1.00  0.00     0.078 A 
HETATM   12  O   UNL     1      65.641   7.047   7.775  1.00  0.00    -0.325 OA
HETATM   13  C   UNL     1      66.319   6.223   8.617  1.00  0.00     0.142 A 
HETATM   14  C   UNL     1      67.503   5.821   8.047  1.00  0.00     0.027 A 
HETATM   15  C   UNL     1      67.563   6.449   6.779  1.00  0.00     0.036 A 
ENDBRANCH  10  11
ENDBRANCH   1  10
TORSDOF 6
ENDMDL
MODEL 4
REMARK VINA RESULT:      -4.2      1.704      1.927
REMARK  6 active torsions:
REMARK  status: ('A' for Active; 'I' for Inactive)
REMARK    1  A    between atoms: N_1  and  C_4 
REMARK    2  A    between atoms: C_4  and  C_10 
REMARK    3  A    between atoms: C_5  and  C_12 
REMARK    4  A    between atoms: C_10  and  C_13 
REMARK    5  A    between atoms: N_11  and  C_13 
REMARK    6  A    between atoms: N_11  and  C_12 
ROOT
HETATM    1  N   UNL     1      63.060   8.427   4.944  1.00  0.00    -0.069 N 
HETATM    2  H   UNL     1      62.588   7.772   5.567  1.00  0.00     0.277 HD
HETATM    3  H   UNL     1      63.519   9.166   5.477  1.00  0.00     0.277 HD
ENDROOT
BRANCH   1   4
HETATM    4  C   UNL     1      62.063   9.049   4.058  1.00  0.00     0.245 C 
BRANCH   4   5
HETATM    5  C   UNL     1      62.140  10.573   4.159  1.00  0.00     0.131 C 
BRANCH   5   6
HETATM    6  C   UNL     1      62.940  11.039   5.364  1.00  0.00    -0.076 C 
BRANCH   6   7
HETATM    7  N   UNL     1      63.604  11.427   6.364  1.00  0.00    -0.370 N 
ATOM      8  HN2 UNL     1      63.095  11.100   5.543  1.00  0.00     0.165 HD
ATOM      9  HN1 UNL     1      64.140  11.741   7.173  1.00  0.00     0.165 HD
ENDBRANCH   6   7
ENDBRANCH   5   6
ENDBRANCH   4   5
ENDBRANCH   1   4
BRANCH   1  10
HETATM   10  C   UNL     1      64.084   7.705   4.177  1.00  0.00     0.296 C 
BRANCH  10  11
HETATM   11  C   UNL     1      65.398   7.736   4.883  1.00  0.00     0.078 A 
HETATM   12  O   UNL     1      65.415   8.328   6.114  1.00  0.00    -0.325 OA
HETATM   13  C   UNL     1      66.691   8.254   6.576  1.00  0.00     0.142 A 
HETATM   14  C   UNL     1      67.496   7.613   5.663  1.00  0.00     0.027 A 
HETATM   15  C   UNL     1      66.664   7.285   4.566  1.00  0.00     0.036 A 
ENDBRANCH  10  11
ENDBRANCH   1  10
TORSDOF 6
ENDMDL
MODEL 5
REMARK VINA RESULT:      -3.6      1.459      1.476
REMARK  6 active torsions:
REMARK  status: ('A' for Active; 'I' for Inactive)
REMARK    1  A    between atoms: N_1  and  C_4 
REMARK    2  A    between atoms: C_4  and  C_10 
REMARK    3  A    between atoms: C_5  and  C_12 
REMARK    4  A    between atoms: C_10  and  C_13 
REMARK    5  A    between atoms: N_11  and  C_13 
REMARK    6  A    between atoms: N_11  and  C_12 
ROOT
HETATM    1  N   UNL     1      63.436   8.466   3.773  1.00  0.00    -0.069 N 
HETATM    2  H   UNL     1      64.292   8.915   3.447  1.00  0.00     0.277 HD
HETATM    3  H   UNL     1      62.982   7.959   3.013  1.00  0.00     0.277 HD
ENDROOT
BRANCH   1   4
HETATM    4  C   UNL     1      62.507   9.501   4.256  1.00  0.00     0.245 C 
BRANCH   4   5
HETATM    5  C   UNL     1      62.020  10.364   3.090  1.00  0.00     0.131 C 
BRANCH   5   6
HETATM    6  C   UNL     1      62.025   9.616   1.768  1.00  0.00    -0.076 C 
BRANCH   6   7
HETATM    7  N   UNL     1      62.029   8.995   0.670  1.00  0.00    -0.370 N 
ATOM      8  HN2 UNL     1      62.006   9.520   1.544  1.00  0.00     0.165 HD
ATOM      9  HN1 UNL     1      62.034   8.493  -0.218  1.00  0.00     0.165 HD
ENDBRANCH   6   7
ENDBRANCH   5   6
ENDBRANCH   4   5
ENDBRANCH   1   4
BRANCH   1  10
HETATM   10  C   UNL     1      63.771   7.507   4.834  1.00  0.00     0.296 C 
BRANCH  10  11
HETATM   11  C   UNL     1      65.210   7.619   5.216  1.00  0.00     0.078 A 
HETATM   12  O   UNL     1      65.480   8.236   6.404  1.00  0.00    -0.325 OA
HETATM   13  C   UNL     1      66.830   8.235   6.558  1.00  0.00     0.142 A 
HETATM   14  C   UNL     1      67.435   7.616   5.489  1.00  0.00     0.027 A 
HETATM   15  C   UNL     1      66.390   7.225   4.617  1.00  0.00     0.036 A 
ENDBRANCH  10  11
ENDBRANCH   1  10
TORSDOF 6
ENDMDL
MODEL 6
REMARK VINA RESULT:      -3.6      4.875      7.052
REMARK  6 active torsions:
REMARK  status: ('A' for Active; 'I' for Inactive)
REMARK    1  A    between atoms: N_1  and  C_4 
REMARK    2  A    between atoms: C_4  and  C_10 
REMARK    3  A    between atoms: C_5  and  C_12 
REMARK    4  A    between atoms: C_10  and  C_13 
REMARK    5  A    between atoms: N_11  and  C_13 
REMARK    6  A    between atoms: N_11  and  C_12 
ROOT
HETATM    1  N   UNL     1      59.796   8.649   1.148  1.00  0.00    -0.069 N 
HETATM    2  H   UNL     1      59.466   9.488   0.671  1.00  0.00     0.277 HD
HETATM    3  H   UNL     1      59.849   8.803   2.155  1.00  0.00     0.277 HD
ENDROOT
BRANCH   1   4
HETATM    4  C   UNL     1      61.144   8.318   0.659  1.00  0.00     0.245 C 
BRANCH   4   5
HETATM    5  C   UNL     1      62.205   8.982   1.539  1.00  0.00     0.131 C 
BRANCH   5   6
HETATM    6  C   UNL     1      61.870  10.427   1.870  1.00  0.00    -0.076 C 
BRANCH   6   7
HETATM    7  N   UNL     1      61.592  11.626   2.144  1.00  0.00    -0.370 N 
ATOM      8  HN2 UNL     1      61.828  10.652   1.954  1.00  0.00     0.165 HD
ATOM      9  HN1 UNL     1      61.368  12.596   2.365  1.00  0.00     0.165 HD
ENDBRANCH   6   7
ENDBRANCH   5   6
ENDBRANCH   4   5
ENDBRANCH   1   4
BRANCH   1  10
HETATM   10  C   UNL     1      58.850   7.553   0.897  1.00  0.00     0.296 C 
BRANCH  10  11
HETATM   11  C   UNL     1      58.006   7.293   2.101  1.00  0.00     0.078 A 
HETATM   12  O   UNL     1      58.533   7.660   3.306  1.00  0.00    -0.325 OA
HETATM   13  C   UNL     1      57.618   7.338   4.258  1.00  0.00     0.142 A 
HETATM   14  C   UNL     1      56.503   6.777   3.681  1.00  0.00     0.027 A 
HETATM   15  C   UNL     1      56.755   6.741   2.289  1.00  0.00     0.036 A 
ENDBRANCH  10  11
ENDBRANCH   1  10
TORSDOF 6
ENDMDL
MODEL 7
REMARK VINA RESULT:      -3.5      3.781      6.647
REMARK  6 active torsions:
REMARK  status: ('A' for Active; 'I' for Inactive)
REMARK    1  A    between atoms: N_1  and  C_4 
REMARK    2  A    between atoms: C_4  and  C_10 
REMARK    3  A    between atoms: C_5  and  C_12 
REMARK    4  A    between atoms: C_10  and  C_13 
REMARK    5  A    between atoms: N_11  and  C_13 
REMARK    6  A    between atoms: N_11  and  C_12 
ROOT
HETATM    1  N   UNL     1      67.406   7.102   7.044  1.00  0.00    -0.069 N 
HETATM    2  H   UNL     1      67.163   6.326   6.428  1.00  0.00     0.277 HD
HETATM    3  H   UNL     1      68.410   7.278   7.025  1.00  0.00     0.277 HD
ENDROOT
BRANCH   1   4
HETATM    4  C   UNL     1      67.023   6.757   8.423  1.00  0.00     0.245 C 
BRANCH   4   5
HETATM    5  C   UNL     1      68.030   5.775   9.023  1.00  0.00     0.131 C 
BRANCH   5   6
HETATM    6  C   UNL     1      67.597   4.326   8.869  1.00  0.00    -0.076 C 
BRANCH   6   7
HETATM    7  N   UNL     1      67.237   3.124   8.741  1.00  0.00    -0.370 N 
ATOM      8  HN2 UNL     1      67.500   4.106   8.828  1.00  0.00     0.165 HD
ATOM      9  HN1 UNL     1      66.948   2.152   8.637  1.00  0.00     0.165 HD
ENDBRANCH   6   7
ENDBRANCH   5   6
ENDBRANCH   4   5
ENDBRANCH   1   4
BRANCH   1  10
HETATM   10  C   UNL     1      66.716   8.314   6.582  1.00  0.00     0.296 C 
BRANCH  10  11
HETATM   11  C   UNL     1      65.718   7.986   5.521  1.00  0.00     0.078 A 
HETATM   12  O   UNL     1      65.946   6.849   4.800  1.00  0.00    -0.325 OA
HETATM   13  C   UNL     1      64.936   6.738   3.898  1.00  0.00     0.142 A 
HETATM   14  C   UNL     1      64.053   7.783   4.034  1.00  0.00     0.027 A 
HETATM   15  C   UNL     1      64.561   8.594   5.077  1.00  0.00     0.036 A 
ENDBRANCH  10  11
ENDBRANCH   1  10
TORSDOF 6
ENDMDL
MODEL 8
REMARK VINA RESULT:      -3.4      9.903     11.273
REMARK  6 active torsions:
REMARK  status: ('A' for Active; 'I' for Inactive)
REMARK    1  A    between atoms: N_1  and  C_4 
REMARK    2  A    between atoms: C_4  and  C_10 
REMARK    3  A    between atoms: C_5  and  C_12 
REMARK    4  A    between atoms: C_10  and  C_13 
REMARK    5  A    between atoms: N_11  and  C_13 
REMARK    6  A    between atoms: N_11  and  C_12 
ROOT
HETATM    1  N   UNL     1      57.425   2.559  10.294  1.00  0.00    -0.069 N 
HETATM    2  H   UNL     1      56.640   3.086   9.910  1.00  0.00     0.277 HD
HETATM    3  H   UNL     1      57.328   1.565  10.088  1.00  0.00     0.277 HD
ENDROOT
BRANCH   1   4
HETATM    4  C   UNL     1      57.446   2.728  11.756  1.00  0.00     0.245 C 
BRANCH   4   5
HETATM    5  C   UNL     1      58.719   2.115  12.343  1.00  0.00     0.131 C 
BRANCH   5   6
HETATM    6  C   UNL     1      58.575   1.766  13.815  1.00  0.00    -0.076 C 
BRANCH   6   7
HETATM    7  N   UNL     1      58.455   1.478  15.037  1.00  0.00    -0.370 N 
ATOM      8  HN2 UNL     1      58.567   1.682  14.044  1.00  0.00     0.165 HD
ATOM      9  HN1 UNL     1      58.359   1.245  16.025  1.00  0.00     0.165 HD
ENDBRANCH   6   7
ENDBRANCH   5   6
ENDBRANCH   4   5
ENDBRANCH   1   4
BRANCH   1  10
HETATM   10  C   UNL     1      58.669   3.040   9.679  1.00  0.00     0.296 C 
BRANCH  10  11
HETATM   11  C   UNL     1      58.436   4.310   8.930  1.00  0.00     0.078 A 
HETATM   12  O   UNL     1      58.842   5.462   9.542  1.00  0.00    -0.325 OA
HETATM   13  C   UNL     1      58.539   6.488   8.703  1.00  0.00     0.142 A 
HETATM   14  C   UNL     1      57.951   6.013   7.555  1.00  0.00     0.027 A 
HETATM   15  C   UNL     1      57.877   4.607   7.703  1.00  0.00     0.036 A 
ENDBRANCH  10  11
ENDBRANCH   1  10
TORSDOF 6
ENDMDL
MODEL 9
REMARK VINA RESULT:      -3.3     12.489     13.282
REMARK  6 active torsions:
REMARK  status: ('A' for Active; 'I' for Inactive)
REMARK    1  A    between atoms: N_1  and  C_4 
REMARK    2  A    between atoms: C_4  and  C_10 
REMARK    3  A    between atoms: C_5  and  C_12 
REMARK    4  A    between atoms: C_10  and  C_13 
REMARK    5  A    between atoms: N_11  and  C_13 
REMARK    6  A    between atoms: N_11  and  C_12 
ROOT
HETATM    1  N   UNL     1      57.951   1.657  14.470  1.00  0.00    -0.069 N 
HETATM    2  H   UNL     1      58.164   1.655  15.467  1.00  0.00     0.277 HD
HETATM    3  H   UNL     1      57.388   2.471  14.222  1.00  0.00     0.277 HD
ENDROOT
BRANCH   1   4
HETATM    4  C   UNL     1      57.180   0.447  14.143  1.00  0.00     0.245 C 
BRANCH   4   5
HETATM    5  C   UNL     1      55.794   0.825  13.619  1.00  0.00     0.131 C 
BRANCH   5   6
HETATM    6  C   UNL     1      55.289   2.137  14.196  1.00  0.00    -0.076 C 
BRANCH   6   7
HETATM    7  N   UNL     1      54.870   3.226  14.675  1.00  0.00    -0.370 N 
ATOM      8  HN2 UNL     1      55.227   2.340  14.316  1.00  0.00     0.165 HD
ATOM      9  HN1 UNL     1      54.532   4.107  15.061  1.00  0.00     0.165 HD
ENDBRANCH   6   7
ENDBRANCH   5   6
ENDBRANCH   4   5
ENDBRANCH   1   4
BRANCH   1  10
HETATM   10  C   UNL     1      59.208   1.715  13.712  1.00  0.00     0.296 C 
BRANCH  10  11
HETATM   11  C   UNL     1      58.942   1.890  12.254  1.00  0.00     0.078 A 
HETATM   12  O   UNL     1      59.482   0.954  11.418  1.00  0.00    -0.325 OA
HETATM   13  C   UNL     1      59.127   1.296  10.152  1.00  0.00     0.142 A 
HETATM   14  C   UNL     1      58.357   2.435  10.159  1.00  0.00     0.027 A 
HETATM   15  C   UNL     1      58.243   2.824  11.516  1.00  0.00     0.036 A 
ENDBRANCH  10  11
ENDBRANCH   1  10
TORSDOF 6
ENDMDL
