MODEL 1
REMARK VINA RESULT:      -6.1      0.000      0.000
REMARK  4 active torsions:
REMARK  status: ('A' for Active; 'I' for Inactive)
REMARK    1  A    between atoms: N_1  and  C_6 
REMARK    2  A    between atoms: C_2  and  C_5 
REMARK    3  A    between atoms: C_6  and  C_8 
REMARK    4  A    between atoms: C_6  and  C_9 
ROOT
HETATM    1  C   UNL     1      63.209   7.688   4.803  1.00  0.00     0.254 C 
ENDROOT
BRANCH   1   2
HETATM    2  N   UNL     1      62.390   6.452   4.859  1.00  0.00    -0.057 N 
HETATM    3  C   UNL     1      60.980   6.695   5.228  1.00  0.00     0.253 C 
HETATM    4  C   UNL     1      61.020   5.382   6.042  1.00  0.00     0.138 C 
HETATM    5  C   UNL     1      62.548   5.611   6.060  1.00  0.00     0.253 C 
HETATM    6  H   UNL     1      62.651   6.073   3.949  1.00  0.00     0.281 HD
BRANCH   4   7
HETATM    7  C   UNL     1      60.276   5.360   7.385  1.00  0.00     0.180 C 
HETATM    8  O   UNL     1      59.884   6.316   8.041  1.00  0.00    -0.648 OA
HETATM    9  O   UNL     1      60.049   4.114   7.868  1.00  0.00    -0.648 OA
ENDBRANCH   4   7
ENDBRANCH   1   2
BRANCH   1  10
HETATM   10  C   UNL     1      64.740   7.559   4.802  1.00  0.00    -0.023 A 
HETATM   11  C   UNL     1      65.547   8.262   5.714  1.00  0.00     0.009 A 
HETATM   12  C   UNL     1      66.933   8.090   5.731  1.00  0.00     0.001 A 
HETATM   13  C   UNL     1      67.539   7.210   4.838  1.00  0.00     0.000 A 
HETATM   14  C   UNL     1      66.760   6.504   3.925  1.00  0.00     0.001 A 
HETATM   15  C   UNL     1      65.374   6.675   3.908  1.00  0.00     0.009 A 
ENDBRANCH   1  10
BRANCH   1  16
HETATM   16  C   UNL     1      62.714   8.679   3.732  1.00  0.00    -0.023 A 
HETATM   17  C   UNL     1      62.363   9.986   4.121  1.00  0.00     0.009 A 
HETATM   18  C   UNL     1      61.930  10.926   3.181  1.00  0.00     0.001 A 
HETATM   19  C   UNL     1      61.844  10.578   1.837  1.00  0.00     0.000 A 
HETATM   20  C   UNL     1      62.196   9.295   1.429  1.00  0.00     0.001 A 
HETATM   21  C   UNL     1      62.628   8.355   2.368  1.00  0.00     0.009 A 
ENDBRANCH   1  16
TORSDOF 4
ENDMDL
MODEL 2
REMARK VINA RESULT:      -5.8      2.801      5.054
REMARK  4 active torsions:
REMARK  status: ('A' for Active; 'I' for Inactive)
REMARK    1  A    between atoms: N_1  and  C_6 
REMARK    2  A    between atoms: C_2  and  C_5 
REMARK    3  A    between atoms: C_6  and  C_8 
REMARK    4  A    between atoms: C_6  and  C_9 
ROOT
HETATM    1  C   UNL     1      62.842   7.625   4.721  1.00  0.00     0.254 C 
ENDROOT
BRANCH   1   2
HETATM    2  N   UNL     1      63.896   7.953   5.712  1.00  0.00    -0.057 N 
HETATM    3  C   UNL     1      65.179   8.355   5.098  1.00  0.00     0.253 C 
HETATM    4  C   UNL     1      65.901   7.594   6.232  1.00  0.00     0.138 C 
HETATM    5  C   UNL     1      64.574   6.813   6.355  1.00  0.00     0.253 C 
HETATM    6  H   UNL     1      63.350   8.595   6.287  1.00  0.00     0.281 HD
BRANCH   4   7
HETATM    7  C   UNL     1      67.170   6.811   5.861  1.00  0.00     0.180 C 
HETATM    8  O   UNL     1      67.589   6.551   4.741  1.00  0.00    -0.648 OA
HETATM    9  O   UNL     1      67.878   6.373   6.930  1.00  0.00    -0.648 OA
ENDBRANCH   4   7
ENDBRANCH   1   2
BRANCH   1  10
HETATM   10  C   UNL     1      61.567   6.917   5.207  1.00  0.00    -0.023 A 
HETATM   11  C   UNL     1      61.426   6.464   6.531  1.00  0.00     0.009 A 
HETATM   12  C   UNL     1      60.239   5.870   6.966  1.00  0.00     0.001 A 
HETATM   13  C   UNL     1      59.170   5.719   6.087  1.00  0.00     0.000 A 
HETATM   14  C   UNL     1      59.288   6.159   4.771  1.00  0.00     0.001 A 
HETATM   15  C   UNL     1      60.474   6.753   4.335  1.00  0.00     0.009 A 
ENDBRANCH   1  10
BRANCH   1  16
HETATM   16  C   UNL     1      62.523   8.804   3.781  1.00  0.00    -0.023 A 
HETATM   17  C   UNL     1      62.520   8.587   2.390  1.00  0.00     0.009 A 
HETATM   18  C   UNL     1      62.215   9.620   1.500  1.00  0.00     0.001 A 
HETATM   19  C   UNL     1      61.904  10.887   1.984  1.00  0.00     0.000 A 
HETATM   20  C   UNL     1      61.892  11.121   3.356  1.00  0.00     0.001 A 
HETATM   21  C   UNL     1      62.197  10.088   4.246  1.00  0.00     0.009 A 
ENDBRANCH   1  16
TORSDOF 4
ENDMDL
MODEL 3
REMARK VINA RESULT:      -5.7      0.773      4.313
REMARK  4 active torsions:
REMARK  status: ('A' for Active; 'I' for Inactive)
REMARK    1  A    between atoms: N_1  and  C_6 
REMARK    2  A    between atoms: C_2  and  C_5 
REMARK    3  A    between atoms: C_6  and  C_8 
REMARK    4  A    between atoms: C_6  and  C_9 
ROOT
HETATM    1  C   UNL     1      63.012   7.419   4.309  1.00  0.00     0.254 C 
ENDROOT
BRANCH   1   2
HETATM    2  N   UNL     1      62.300   7.118   5.576  1.00  0.00    -0.057 N 
HETATM    3  C   UNL     1      62.763   5.878   6.232  1.00  0.00     0.253 C 
HETATM    4  C   UNL     1      61.295   5.605   6.635  1.00  0.00     0.138 C 
HETATM    5  C   UNL     1      60.951   6.537   5.452  1.00  0.00     0.253 C 
HETATM    6  H   UNL     1      62.409   8.032   6.015  1.00  0.00     0.281 HD
BRANCH   4   7
HETATM    7  C   UNL     1      60.805   4.151   6.576  1.00  0.00     0.180 C 
HETATM    8  O   UNL     1      60.973   3.339   5.676  1.00  0.00    -0.648 OA
HETATM    9  O   UNL     1      60.106   3.761   7.670  1.00  0.00    -0.648 OA
ENDBRANCH   4   7
ENDBRANCH   1   2
BRANCH   1  10
HETATM   10  C   UNL     1      62.567   8.638   3.485  1.00  0.00    -0.023 A 
HETATM   11  C   UNL     1      62.284   9.878   4.083  1.00  0.00     0.009 A 
HETATM   12  C   UNL     1      61.932  10.987   3.310  1.00  0.00     0.001 A 
HETATM   13  C   UNL     1      61.860  10.879   1.924  1.00  0.00     0.000 A 
HETATM   14  C   UNL     1      62.136   9.660   1.310  1.00  0.00     0.001 A 
HETATM   15  C   UNL     1      62.488   8.550   2.082  1.00  0.00     0.009 A 
ENDBRANCH   1  10
BRANCH   1  16
HETATM   16  C   UNL     1      64.544   7.352   4.459  1.00  0.00    -0.023 A 
HETATM   17  C   UNL     1      65.270   6.446   3.663  1.00  0.00     0.009 A 
HETATM   18  C   UNL     1      66.662   6.366   3.749  1.00  0.00     0.001 A 
HETATM   19  C   UNL     1      67.355   7.193   4.628  1.00  0.00     0.000 A 
HETATM   20  C   UNL     1      66.658   8.104   5.417  1.00  0.00     0.001 A 
HETATM   21  C   UNL     1      65.266   8.183   5.331  1.00  0.00     0.009 A 
ENDBRANCH   1  16
TORSDOF 4
ENDMDL
MODEL 4
REMARK VINA RESULT:      -5.7      2.731      5.353
REMARK  4 active torsions:
REMARK  status: ('A' for Active; 'I' for Inactive)
REMARK    1  A    between atoms: N_1  and  C_6 
REMARK    2  A    between atoms: C_2  and  C_5 
REMARK    3  A    between atoms: C_6  and  C_8 
REMARK    4  A    between atoms: C_6  and  C_9 
ROOT
HETATM    1  C   UNL     1      61.487   7.063   3.757  1.00  0.00     0.254 C 
ENDROOT
BRANCH   1   2
HETATM    2  N   UNL     1      62.659   6.625   4.556  1.00  0.00    -0.057 N 
HETATM    3  C   UNL     1      62.964   7.517   5.694  1.00  0.00     0.253 C 
HETATM    4  C   UNL     1      64.465   7.280   5.410  1.00  0.00     0.138 C 
HETATM    5  C   UNL     1      63.988   6.913   3.987  1.00  0.00     0.253 C 
HETATM    6  H   UNL     1      62.377   5.654   4.693  1.00  0.00     0.281 HD
BRANCH   4   7
HETATM    7  C   UNL     1      65.412   8.478   5.569  1.00  0.00     0.180 C 
HETATM    8  O   UNL     1      65.122   9.627   5.877  1.00  0.00    -0.648 OA
HETATM    9  O   UNL     1      66.714   8.187   5.329  1.00  0.00    -0.648 OA
ENDBRANCH   4   7
ENDBRANCH   1   2
BRANCH   1  10
HETATM   10  C   UNL     1      60.083   6.901   4.360  1.00  0.00    -0.023 A 
HETATM   11  C   UNL     1      58.957   7.534   3.804  1.00  0.00     0.009 A 
HETATM   12  C   UNL     1      57.681   7.333   4.335  1.00  0.00     0.001 A 
HETATM   13  C   UNL     1      57.505   6.491   5.431  1.00  0.00     0.000 A 
HETATM   14  C   UNL     1      58.606   5.855   5.999  1.00  0.00     0.001 A 
HETATM   15  C   UNL     1      59.882   6.056   5.468  1.00  0.00     0.009 A 
ENDBRANCH   1  10
BRANCH   1  16
HETATM   16  C   UNL     1      61.687   8.454   3.125  1.00  0.00    -0.023 A 
HETATM   17  C   UNL     1      61.850   8.553   1.730  1.00  0.00     0.009 A 
HETATM   18  C   UNL     1      62.012   9.794   1.110  1.00  0.00     0.001 A 
HETATM   19  C   UNL     1      62.009  10.959   1.871  1.00  0.00     0.000 A 
HETATM   20  C   UNL     1      61.839  10.885   3.251  1.00  0.00     0.001 A 
HETATM   21  C   UNL     1      61.678   9.643   3.871  1.00  0.00     0.009 A 
ENDBRANCH   1  16
TORSDOF 4
ENDMDL
MODEL 5
REMARK VINA RESULT:      -5.3      1.750      4.646
REMARK  4 active torsions:
REMARK  status: ('A' for Active; 'I' for Inactive)
REMARK    1  A    between atoms: N_1  and  C_6 
REMARK    2  A    between atoms: C_2  and  C_5 
REMARK    3  A    between atoms: C_6  and  C_8 
REMARK    4  A    between atoms: C_6  and  C_9 
ROOT
HETATM    1  C   UNL     1      63.518   7.276   4.393  1.00  0.00     0.254 C 
ENDROOT
BRANCH   1   2
HETATM    2  N   UNL     1      62.536   6.239   4.796  1.00  0.00    -0.057 N 
HETATM    3  C   UNL     1      61.568   5.898   3.734  1.00  0.00     0.253 C 
HETATM    4  C   UNL     1      60.487   5.770   4.832  1.00  0.00     0.138 C 
HETATM    5  C   UNL     1      61.422   6.684   5.654  1.00  0.00     0.253 C 
HETATM    6  H   UNL     1      63.200   5.555   5.159  1.00  0.00     0.281 HD
BRANCH   4   7
HETATM    7  C   UNL     1      59.079   6.287   4.500  1.00  0.00     0.180 C 
HETATM    8  O   UNL     1      58.778   7.269   3.833  1.00  0.00    -0.648 OA
HETATM    9  O   UNL     1      58.080   5.540   5.030  1.00  0.00    -0.648 OA
ENDBRANCH   4   7
ENDBRANCH   1   2
BRANCH   1  10
HETATM   10  C   UNL     1      63.032   8.724   4.219  1.00  0.00    -0.023 A 
HETATM   11  C   UNL     1      62.401   9.162   3.041  1.00  0.00     0.009 A 
HETATM   12  C   UNL     1      61.921  10.468   2.925  1.00  0.00     0.001 A 
HETATM   13  C   UNL     1      62.058  11.361   3.984  1.00  0.00     0.000 A 
HETATM   14  C   UNL     1      62.681  10.949   5.160  1.00  0.00     0.001 A 
HETATM   15  C   UNL     1      63.162   9.643   5.278  1.00  0.00     0.009 A 
ENDBRANCH   1  10
BRANCH   1  16
HETATM   16  C   UNL     1      64.827   7.200   5.202  1.00  0.00    -0.023 A 
HETATM   17  C   UNL     1      66.031   7.600   4.591  1.00  0.00     0.009 A 
HETATM   18  C   UNL     1      67.239   7.569   5.293  1.00  0.00     0.001 A 
HETATM   19  C   UNL     1      67.265   7.143   6.617  1.00  0.00     0.000 A 
HETATM   20  C   UNL     1      66.085   6.754   7.243  1.00  0.00     0.001 A 
HETATM   21  C   UNL     1      64.877   6.784   6.542  1.00  0.00     0.009 A 
ENDBRANCH   1  16
TORSDOF 4
ENDMDL
MODEL 6
REMARK VINA RESULT:      -5.3      2.895      5.168
REMARK  4 active torsions:
REMARK  status: ('A' for Active; 'I' for Inactive)
REMARK    1  A    between atoms: N_1  and  C_6 
REMARK    2  A    between atoms: C_2  and  C_5 
REMARK    3  A    between atoms: C_6  and  C_8 
REMARK    4  A    between atoms: C_6  and  C_9 
ROOT
HETATM    1  C   UNL     1      63.052   6.917   4.832  1.00  0.00     0.254 C 
ENDROOT
BRANCH   1   2
HETATM    2  N   UNL     1      62.337   8.217   4.839  1.00  0.00    -0.057 N 
HETATM    3  C   UNL     1      61.406   8.384   3.703  1.00  0.00     0.253 C 
HETATM    4  C   UNL     1      61.822   9.872   3.648  1.00  0.00     0.138 C 
HETATM    5  C   UNL     1      63.098   9.391   4.373  1.00  0.00     0.253 C 
HETATM    6  H   UNL     1      62.009   8.188   5.804  1.00  0.00     0.281 HD
BRANCH   4   7
HETATM    7  C   UNL     1      61.975  10.512   2.260  1.00  0.00     0.180 C 
HETATM    8  O   UNL     1      62.104   9.944   1.183  1.00  0.00    -0.648 OA
HETATM    9  O   UNL     1      61.964  11.867   2.275  1.00  0.00    -0.648 OA
ENDBRANCH   4   7
ENDBRANCH   1   2
BRANCH   1  10
HETATM   10  C   UNL     1      64.574   6.912   5.047  1.00  0.00    -0.023 A 
HETATM   11  C   UNL     1      65.475   6.703   3.988  1.00  0.00     0.009 A 
HETATM   12  C   UNL     1      66.855   6.753   4.197  1.00  0.00     0.001 A 
HETATM   13  C   UNL     1      67.362   7.018   5.466  1.00  0.00     0.000 A 
HETATM   14  C   UNL     1      66.488   7.227   6.530  1.00  0.00     0.001 A 
HETATM   15  C   UNL     1      65.107   7.176   6.323  1.00  0.00     0.009 A 
ENDBRANCH   1  10
BRANCH   1  16
HETATM   16  C   UNL     1      62.346   5.847   5.686  1.00  0.00    -0.023 A 
HETATM   17  C   UNL     1      61.265   6.230   6.504  1.00  0.00     0.009 A 
HETATM   18  C   UNL     1      60.580   5.291   7.279  1.00  0.00     0.001 A 
HETATM   19  C   UNL     1      60.958   3.952   7.247  1.00  0.00     0.000 A 
HETATM   20  C   UNL     1      62.016   3.550   6.437  1.00  0.00     0.001 A 
HETATM   21  C   UNL     1      62.702   4.489   5.663  1.00  0.00     0.009 A 
ENDBRANCH   1  16
TORSDOF 4
ENDMDL
MODEL 7
REMARK VINA RESULT:      -5.0      3.003      5.951
REMARK  4 active torsions:
REMARK  status: ('A' for Active; 'I' for Inactive)
REMARK    1  A    between atoms: N_1  and  C_6 
REMARK    2  A    between atoms: C_2  and  C_5 
REMARK    3  A    between atoms: C_6  and  C_8 
REMARK    4  A    between atoms: C_6  and  C_9 
ROOT
HETATM    1  C   UNL     1      63.914   6.347   5.933  1.00  0.00     0.254 C 
ENDROOT
BRANCH   1   2
HETATM    2  N   UNL     1      63.751   7.379   4.879  1.00  0.00    -0.057 N 
HETATM    3  C   UNL     1      64.475   8.634   5.166  1.00  0.00     0.253 C 
HETATM    4  C   UNL     1      63.283   9.401   4.549  1.00  0.00     0.138 C 
HETATM    5  C   UNL     1      62.479   8.124   4.879  1.00  0.00     0.253 C 
HETATM    6  H   UNL     1      63.985   6.794   4.077  1.00  0.00     0.281 HD
BRANCH   4   7
HETATM    7  C   UNL     1      62.863  10.715   5.225  1.00  0.00     0.180 C 
HETATM    8  O   UNL     1      63.198  11.133   6.326  1.00  0.00    -0.648 OA
HETATM    9  O   UNL     1      62.020  11.471   4.481  1.00  0.00    -0.648 OA
ENDBRANCH   4   7
ENDBRANCH   1   2
BRANCH   1  10
HETATM   10  C   UNL     1      63.224   4.986   5.746  1.00  0.00    -0.023 A 
HETATM   11  C   UNL     1      62.847   4.510   4.478  1.00  0.00     0.009 A 
HETATM   12  C   UNL     1      62.269   3.249   4.325  1.00  0.00     0.001 A 
HETATM   13  C   UNL     1      62.059   2.436   5.436  1.00  0.00     0.000 A 
HETATM   14  C   UNL     1      62.423   2.887   6.702  1.00  0.00     0.001 A 
HETATM   15  C   UNL     1      63.002   4.149   6.856  1.00  0.00     0.009 A 
ENDBRANCH   1  10
BRANCH   1  16
HETATM   16  C   UNL     1      65.377   6.193   6.391  1.00  0.00    -0.023 A 
HETATM   17  C   UNL     1      65.736   6.617   7.685  1.00  0.00     0.009 A 
HETATM   18  C   UNL     1      67.046   6.477   8.151  1.00  0.00     0.001 A 
HETATM   19  C   UNL     1      68.019   5.907   7.336  1.00  0.00     0.000 A 
HETATM   20  C   UNL     1      67.683   5.471   6.058  1.00  0.00     0.001 A 
HETATM   21  C   UNL     1      66.374   5.612   5.591  1.00  0.00     0.009 A 
ENDBRANCH   1  16
TORSDOF 4
ENDMDL
MODEL 8
REMARK VINA RESULT:      -5.0      2.817      5.180
REMARK  4 active torsions:
REMARK  status: ('A' for Active; 'I' for Inactive)
REMARK    1  A    between atoms: N_1  and  C_6 
REMARK    2  A    between atoms: C_2  and  C_5 
REMARK    3  A    between atoms: C_6  and  C_8 
REMARK    4  A    between atoms: C_6  and  C_9 
ROOT
HETATM    1  C   UNL     1      61.172   7.467   4.278  1.00  0.00     0.254 C 
ENDROOT
BRANCH   1   2
HETATM    2  N   UNL     1      62.171   6.699   5.062  1.00  0.00    -0.057 N 
HETATM    3  C   UNL     1      62.656   7.413   6.261  1.00  0.00     0.253 C 
HETATM    4  C   UNL     1      64.057   6.822   5.983  1.00  0.00     0.138 C 
HETATM    5  C   UNL     1      63.547   6.677   4.532  1.00  0.00     0.253 C 
HETATM    6  H   UNL     1      61.650   5.824   5.130  1.00  0.00     0.281 HD
BRANCH   4   7
HETATM    7  C   UNL     1      65.270   7.731   6.236  1.00  0.00     0.180 C 
HETATM    8  O   UNL     1      65.453   8.869   5.823  1.00  0.00    -0.648 OA
HETATM    9  O   UNL     1      66.228   7.167   7.011  1.00  0.00    -0.648 OA
ENDBRANCH   4   7
ENDBRANCH   1   2
BRANCH   1  10
HETATM   10  C   UNL     1      61.518   7.872   2.837  1.00  0.00    -0.023 A 
HETATM   11  C   UNL     1      61.844   9.196   2.494  1.00  0.00     0.009 A 
HETATM   12  C   UNL     1      62.206   9.533   1.188  1.00  0.00     0.001 A 
HETATM   13  C   UNL     1      62.253   8.553   0.200  1.00  0.00     0.000 A 
HETATM   14  C   UNL     1      61.933   7.235   0.517  1.00  0.00     0.001 A 
HETATM   15  C   UNL     1      61.570   6.897   1.823  1.00  0.00     0.009 A 
ENDBRANCH   1  10
BRANCH   1  16
HETATM   16  C   UNL     1      59.753   6.875   4.386  1.00  0.00    -0.023 A 
HETATM   17  C   UNL     1      59.574   5.644   5.046  1.00  0.00     0.009 A 
HETATM   18  C   UNL     1      58.304   5.080   5.188  1.00  0.00     0.001 A 
HETATM   19  C   UNL     1      57.189   5.737   4.676  1.00  0.00     0.000 A 
HETATM   20  C   UNL     1      57.342   6.960   4.029  1.00  0.00     0.001 A 
HETATM   21  C   UNL     1      58.612   7.524   3.887  1.00  0.00     0.009 A 
ENDBRANCH   1  16
TORSDOF 4
ENDMDL
MODEL 9
REMARK VINA RESULT:      -5.0      2.671      5.876
REMARK  4 active torsions:
REMARK  status: ('A' for Active; 'I' for Inactive)
REMARK    1  A    between atoms: N_1  and  C_6 
REMARK    2  A    between atoms: C_2  and  C_5 
REMARK    3  A    between atoms: C_6  and  C_8 
REMARK    4  A    between atoms: C_6  and  C_9 
ROOT
HETATM    1  C   UNL     1      63.114   6.973   5.590  1.00  0.00     0.254 C 
ENDROOT
BRANCH   1   2
HETATM    2  N   UNL     1      62.758   7.512   4.254  1.00  0.00    -0.057 N 
HETATM    3  C   UNL     1      63.550   8.697   3.865  1.00  0.00     0.253 C 
HETATM    4  C   UNL     1      62.273   9.273   3.214  1.00  0.00     0.138 C 
HETATM    5  C   UNL     1      61.528   8.322   4.177  1.00  0.00     0.253 C 
HETATM    6  H   UNL     1      62.809   6.635   3.735  1.00  0.00     0.281 HD
BRANCH   4   7
HETATM    7  C   UNL     1      62.027  10.782   3.354  1.00  0.00     0.180 C 
HETATM    8  O   UNL     1      61.839  11.419   4.383  1.00  0.00    -0.648 OA
HETATM    9  O   UNL     1      62.024  11.452   2.176  1.00  0.00    -0.648 OA
ENDBRANCH   4   7
ENDBRANCH   1   2
BRANCH   1  10
HETATM   10  C   UNL     1      62.228   5.878   6.204  1.00  0.00    -0.023 A 
HETATM   11  C   UNL     1      62.629   4.531   6.244  1.00  0.00     0.009 A 
HETATM   12  C   UNL     1      61.832   3.559   6.853  1.00  0.00     0.001 A 
HETATM   13  C   UNL     1      60.619   3.916   7.437  1.00  0.00     0.000 A 
HETATM   14  C   UNL     1      60.201   5.243   7.409  1.00  0.00     0.001 A 
HETATM   15  C   UNL     1      60.997   6.216   6.800  1.00  0.00     0.009 A 
ENDBRANCH   1  10
BRANCH   1  16
HETATM   16  C   UNL     1      64.613   6.639   5.714  1.00  0.00    -0.023 A 
HETATM   17  C   UNL     1      65.290   6.969   6.904  1.00  0.00     0.009 A 
HETATM   18  C   UNL     1      66.643   6.665   7.071  1.00  0.00     0.001 A 
HETATM   19  C   UNL     1      67.344   6.023   6.054  1.00  0.00     0.000 A 
HETATM   20  C   UNL     1      66.691   5.678   4.874  1.00  0.00     0.001 A 
HETATM   21  C   UNL     1      65.338   5.982   4.707  1.00  0.00     0.009 A 
ENDBRANCH   1  16
TORSDOF 4
ENDMDL
