MODEL 1
REMARK VINA RESULT:      -5.3      0.000      0.000
REMARK  2 active torsions:
REMARK  status: ('A' for Active; 'I' for Inactive)
REMARK    1  A    between atoms: C_1  and  C_2 
REMARK    2  A    between atoms: C_1  and  O_11 
ROOT
HETATM    1  C   UNL     1      63.926   8.686   4.953  1.00  0.00     0.040 A 
HETATM    2  C   UNL     1      63.791   7.847   3.839  1.00  0.00     0.031 A 
HETATM    3  C   UNL     1      62.865   8.144   2.822  1.00  0.00    -0.008 A 
HETATM    4  N   UNL     1      61.150   9.612   1.968  1.00  0.00    -0.365 N 
ATOM      5  HN  UNL     1      60.564  10.442   2.059  1.00  0.00     0.165 HD
HETATM    6  C   UNL     1      62.047   9.290   2.916  1.00  0.00     0.042 A 
HETATM    7  C   UNL     1      63.118   9.821   5.046  1.00  0.00     0.020 A 
HETATM    8  C   UNL     1      62.191  10.105   4.032  1.00  0.00     0.031 A 
HETATM    9  C   UNL     1      61.048   8.802   0.890  1.00  0.00     0.088 A 
HETATM   10  C   UNL     1      62.729   7.329   1.692  1.00  0.00     0.015 A 
HETATM   11  C   UNL     1      61.808   7.663   0.706  1.00  0.00     0.018 A 
ENDROOT
BRANCH   1  12
HETATM   12  C   UNL     1      64.937   8.322   5.983  1.00  0.00     0.292 C 
HETATM   13  O   UNL     1      66.009   8.900   6.093  1.00  0.00    -0.259 OA
BRANCH  12  14
HETATM   14  O   UNL     1      64.504   7.295   6.752  1.00  0.00    -0.323 OA
HETATM   15  C   UNL     1      65.543   6.551   7.398  1.00  0.00     0.213 C 
ENDBRANCH  12  14
ENDBRANCH   1  12
TORSDOF 2
ENDMDL
MODEL 2
REMARK VINA RESULT:      -5.0      1.522      2.589
REMARK  2 active torsions:
REMARK  status: ('A' for Active; 'I' for Inactive)
REMARK    1  A    between atoms: C_1  and  C_2 
REMARK    2  A    between atoms: C_1  and  O_11 
ROOT
HETATM    1  C   UNL     1      63.515   7.372   5.117  1.00  0.00     0.040 A 
HETATM    2  C   UNL     1      63.111   8.709   5.220  1.00  0.00     0.031 A 
HETATM    3  C   UNL     1      62.679   9.420   4.085  1.00  0.00    -0.008 A 
HETATM    4  N   UNL     1      62.255   9.438   1.709  1.00  0.00    -0.365 N 
ATOM      5  HN  UNL     1      62.256   8.970   0.802  1.00  0.00     0.165 HD
HETATM    6  C   UNL     1      62.660   8.796   2.819  1.00  0.00     0.042 A 
HETATM    7  C   UNL     1      63.493   6.753   3.866  1.00  0.00     0.020 A 
HETATM    8  C   UNL     1      63.071   7.472   2.737  1.00  0.00     0.031 A 
HETATM    9  C   UNL     1      61.849  10.722   1.830  1.00  0.00     0.088 A 
HETATM   10  C   UNL     1      62.253  10.751   4.170  1.00  0.00     0.015 A 
HETATM   11  C   UNL     1      61.828  11.414   3.026  1.00  0.00     0.018 A 
ENDROOT
BRANCH   1  12
HETATM   12  C   UNL     1      63.941   6.673   6.361  1.00  0.00     0.292 C 
HETATM   13  O   UNL     1      64.492   7.247   7.289  1.00  0.00    -0.259 OA
BRANCH  12  14
HETATM   14  O   UNL     1      63.635   5.354   6.310  1.00  0.00    -0.323 OA
HETATM   15  C   UNL     1      64.689   4.479   6.725  1.00  0.00     0.213 C 
ENDBRANCH  12  14
ENDBRANCH   1  12
TORSDOF 2
ENDMDL
MODEL 3
REMARK VINA RESULT:      -4.9      2.943      5.230
REMARK  2 active torsions:
REMARK  status: ('A' for Active; 'I' for Inactive)
REMARK    1  A    between atoms: C_1  and  C_2 
REMARK    2  A    between atoms: C_1  and  O_11 
ROOT
HETATM    1  C   UNL     1      63.207   9.091   3.951  1.00  0.00     0.040 A 
HETATM    2  C   UNL     1      64.202   9.125   4.936  1.00  0.00     0.031 A 
HETATM    3  C   UNL     1      65.115   8.063   5.074  1.00  0.00    -0.008 A 
HETATM    4  N   UNL     1      65.883   5.902   4.323  1.00  0.00    -0.365 N 
ATOM      5  HN  UNL     1      65.801   5.094   3.705  1.00  0.00     0.165 HD
HETATM    6  C   UNL     1      65.032   6.937   4.226  1.00  0.00     0.042 A 
HETATM    7  C   UNL     1      63.125   7.978   3.111  1.00  0.00     0.020 A 
HETATM    8  C   UNL     1      64.033   6.920   3.261  1.00  0.00     0.031 A 
HETATM    9  C   UNL     1      66.851   5.961   5.266  1.00  0.00     0.088 A 
HETATM   10  C   UNL     1      66.130   8.087   6.039  1.00  0.00     0.015 A 
HETATM   11  C   UNL     1      67.015   7.021   6.137  1.00  0.00     0.018 A 
ENDROOT
BRANCH   1  12
HETATM   12  C   UNL     1      62.286  10.256   3.847  1.00  0.00     0.292 C 
HETATM   13  O   UNL     1      62.071  11.017   4.779  1.00  0.00    -0.259 OA
BRANCH  12  14
HETATM   14  O   UNL     1      61.746  10.343   2.608  1.00  0.00    -0.323 OA
HETATM   15  C   UNL     1      61.784  11.651   2.029  1.00  0.00     0.213 C 
ENDBRANCH  12  14
ENDBRANCH   1  12
TORSDOF 2
ENDMDL
MODEL 4
REMARK VINA RESULT:      -4.8      1.543      2.742
REMARK  2 active torsions:
REMARK  status: ('A' for Active; 'I' for Inactive)
REMARK    1  A    between atoms: C_1  and  C_2 
REMARK    2  A    between atoms: C_1  and  O_11 
ROOT
HETATM    1  C   UNL     1      64.881   7.200   5.213  1.00  0.00     0.040 A 
HETATM    2  C   UNL     1      64.334   8.455   5.507  1.00  0.00     0.031 A 
HETATM    3  C   UNL     1      63.469   9.094   4.599  1.00  0.00    -0.008 A 
HETATM    4  N   UNL     1      62.330   9.056   2.472  1.00  0.00    -0.365 N 
ATOM      5  HN  UNL     1      62.118   8.599   1.584  1.00  0.00     0.165 HD
HETATM    6  C   UNL     1      63.151   8.482   3.368  1.00  0.00     0.042 A 
HETATM    7  C   UNL     1      64.564   6.592   3.996  1.00  0.00     0.020 A 
HETATM    8  C   UNL     1      63.710   7.240   3.092  1.00  0.00     0.031 A 
HETATM    9  C   UNL     1      61.794  10.259   2.782  1.00  0.00     0.088 A 
HETATM   10  C   UNL     1      62.896  10.339   4.883  1.00  0.00     0.015 A 
HETATM   11  C   UNL     1      62.042  10.933   3.962  1.00  0.00     0.018 A 
ENDROOT
BRANCH   1  12
HETATM   12  C   UNL     1      65.773   6.571   6.226  1.00  0.00     0.292 C 
HETATM   13  O   UNL     1      66.515   5.635   5.968  1.00  0.00    -0.259 OA
BRANCH  12  14
HETATM   14  O   UNL     1      65.643   7.175   7.432  1.00  0.00    -0.323 OA
HETATM   15  C   UNL     1      66.239   6.465   8.523  1.00  0.00     0.213 C 
ENDBRANCH  12  14
ENDBRANCH   1  12
TORSDOF 2
ENDMDL
MODEL 5
REMARK VINA RESULT:      -4.8      3.203      5.368
REMARK  2 active torsions:
REMARK  status: ('A' for Active; 'I' for Inactive)
REMARK    1  A    between atoms: C_1  and  C_2 
REMARK    2  A    between atoms: C_1  and  O_11 
ROOT
HETATM    1  C   UNL     1      63.087   8.938   4.875  1.00  0.00     0.040 A 
HETATM    2  C   UNL     1      64.485   8.955   4.960  1.00  0.00     0.031 A 
HETATM    3  C   UNL     1      65.177   7.931   5.634  1.00  0.00    -0.008 A 
HETATM    4  N   UNL     1      65.088   5.878   6.899  1.00  0.00    -0.365 N 
ATOM      5  HN  UNL     1      64.556   5.128   7.341  1.00  0.00     0.165 HD
HETATM    6  C   UNL     1      64.468   6.876   6.246  1.00  0.00     0.042 A 
HETATM    7  C   UNL     1      62.385   7.893   5.478  1.00  0.00     0.020 A 
HETATM    8  C   UNL     1      63.081   6.882   6.156  1.00  0.00     0.031 A 
HETATM    9  C   UNL     1      66.439   5.899   6.954  1.00  0.00     0.088 A 
HETATM   10  C   UNL     1      66.575   7.919   5.714  1.00  0.00     0.015 A 
HETATM   11  C   UNL     1      67.219   6.886   6.382  1.00  0.00     0.018 A 
ENDROOT
BRANCH   1  12
HETATM   12  C   UNL     1      62.419  10.042   4.131  1.00  0.00     0.292 C 
HETATM   13  O   UNL     1      62.106  11.101   4.655  1.00  0.00    -0.259 OA
BRANCH  12  14
HETATM   14  O   UNL     1      62.223   9.707   2.833  1.00  0.00    -0.323 OA
HETATM   15  C   UNL     1      61.889  10.805   1.977  1.00  0.00     0.213 C 
ENDBRANCH  12  14
ENDBRANCH   1  12
TORSDOF 2
ENDMDL
MODEL 6
REMARK VINA RESULT:      -4.5      3.179      4.920
REMARK  2 active torsions:
REMARK  status: ('A' for Active; 'I' for Inactive)
REMARK    1  A    between atoms: C_1  and  C_2 
REMARK    2  A    between atoms: C_1  and  O_11 
ROOT
HETATM    1  C   UNL     1      62.465   8.573   3.171  1.00  0.00     0.040 A 
HETATM    2  C   UNL     1      63.475   7.603   3.198  1.00  0.00     0.031 A 
HETATM    3  C   UNL     1      64.490   7.648   4.172  1.00  0.00    -0.008 A 
HETATM    4  N   UNL     1      65.461   8.763   6.079  1.00  0.00    -0.365 N 
ATOM      5  HN  UNL     1      65.461   9.523   6.759  1.00  0.00     0.165 HD
HETATM    6  C   UNL     1      64.511   8.682   5.131  1.00  0.00     0.042 A 
HETATM    7  C   UNL     1      62.484   9.595   4.121  1.00  0.00     0.020 A 
HETATM    8  C   UNL     1      63.504   9.638   5.083  1.00  0.00     0.031 A 
HETATM    9  C   UNL     1      66.416   7.806   6.103  1.00  0.00     0.088 A 
HETATM   10  C   UNL     1      65.497   6.677   4.228  1.00  0.00     0.015 A 
HETATM   11  C   UNL     1      66.476   6.753   5.210  1.00  0.00     0.018 A 
ENDROOT
BRANCH   1  12
HETATM   12  C   UNL     1      61.412   8.455   2.125  1.00  0.00     0.292 C 
HETATM   13  O   UNL     1      61.295   9.255   1.208  1.00  0.00    -0.259 OA
BRANCH  12  14
HETATM   14  O   UNL     1      60.634   7.366   2.336  1.00  0.00    -0.323 OA
HETATM   15  C   UNL     1      59.562   7.568   3.263  1.00  0.00     0.213 C 
ENDBRANCH  12  14
ENDBRANCH   1  12
TORSDOF 2
ENDMDL
MODEL 7
REMARK VINA RESULT:      -4.3      2.427      2.557
REMARK  2 active torsions:
REMARK  status: ('A' for Active; 'I' for Inactive)
REMARK    1  A    between atoms: C_1  and  C_2 
REMARK    2  A    between atoms: C_1  and  O_11 
ROOT
HETATM    1  C   UNL     1      63.316   8.439   4.616  1.00  0.00     0.040 A 
HETATM    2  C   UNL     1      62.490   7.404   5.072  1.00  0.00     0.031 A 
HETATM    3  C   UNL     1      61.189   7.244   4.561  1.00  0.00    -0.008 A 
HETATM    4  N   UNL     1      59.455   8.020   3.072  1.00  0.00    -0.365 N 
ATOM      5  HN  UNL     1      59.113   8.680   2.373  1.00  0.00     0.165 HD
HETATM    6  C   UNL     1      60.691   8.136   3.587  1.00  0.00     0.042 A 
HETATM    7  C   UNL     1      62.826   9.321   3.651  1.00  0.00     0.020 A 
HETATM    8  C   UNL     1      61.524   9.160   3.154  1.00  0.00     0.031 A 
HETATM    9  C   UNL     1      58.679   7.002   3.508  1.00  0.00     0.088 A 
HETATM   10  C   UNL     1      60.354   6.204   4.989  1.00  0.00     0.015 A 
HETATM   11  C   UNL     1      59.079   6.077   4.453  1.00  0.00     0.018 A 
ENDROOT
BRANCH   1  12
HETATM   12  C   UNL     1      64.688   8.540   5.185  1.00  0.00     0.292 C 
HETATM   13  O   UNL     1      65.072   9.508   5.825  1.00  0.00    -0.259 OA
BRANCH  12  14
HETATM   14  O   UNL     1      65.418   7.435   4.899  1.00  0.00    -0.323 OA
HETATM   15  C   UNL     1      66.172   6.915   5.999  1.00  0.00     0.213 C 
ENDBRANCH  12  14
ENDBRANCH   1  12
TORSDOF 2
ENDMDL
MODEL 8
REMARK VINA RESULT:      -4.3      2.706      3.311
REMARK  2 active torsions:
REMARK  status: ('A' for Active; 'I' for Inactive)
REMARK    1  A    between atoms: C_1  and  C_2 
REMARK    2  A    between atoms: C_1  and  O_11 
ROOT
HETATM    1  C   UNL     1      64.304   7.775   5.517  1.00  0.00     0.040 A 
HETATM    2  C   UNL     1      63.389   7.017   6.258  1.00  0.00     0.031 A 
HETATM    3  C   UNL     1      62.079   6.809   5.787  1.00  0.00    -0.008 A 
HETATM    4  N   UNL     1      60.423   7.200   4.076  1.00  0.00    -0.365 N 
ATOM      5  HN  UNL     1      60.142   7.624   3.191  1.00  0.00     0.165 HD
HETATM    6  C   UNL     1      61.664   7.374   4.562  1.00  0.00     0.042 A 
HETATM    7  C   UNL     1      63.895   8.332   4.303  1.00  0.00     0.020 A 
HETATM    8  C   UNL     1      62.585   8.128   3.846  1.00  0.00     0.031 A 
HETATM    9  C   UNL     1      59.559   6.448   4.794  1.00  0.00     0.088 A 
HETATM   10  C   UNL     1      61.155   6.038   6.503  1.00  0.00     0.015 A 
HETATM   11  C   UNL     1      59.874   5.851   6.000  1.00  0.00     0.018 A 
ENDROOT
BRANCH   1  12
HETATM   12  C   UNL     1      65.679   7.940   6.063  1.00  0.00     0.292 C 
HETATM   13  O   UNL     1      65.993   7.583   7.190  1.00  0.00    -0.259 OA
BRANCH  12  14
HETATM   14  O   UNL     1      66.499   8.521   5.155  1.00  0.00    -0.323 OA
HETATM   15  C   UNL     1      67.712   7.804   4.900  1.00  0.00     0.213 C 
ENDBRANCH  12  14
ENDBRANCH   1  12
TORSDOF 2
ENDMDL
MODEL 9
REMARK VINA RESULT:      -4.3      2.262      3.521
REMARK  2 active torsions:
REMARK  status: ('A' for Active; 'I' for Inactive)
REMARK    1  A    between atoms: C_1  and  C_2 
REMARK    2  A    between atoms: C_1  and  O_11 
ROOT
HETATM    1  C   UNL     1      63.830   6.778   3.069  1.00  0.00     0.040 A 
HETATM    2  C   UNL     1      63.943   7.706   4.111  1.00  0.00     0.031 A 
HETATM    3  C   UNL     1      63.246   8.928   4.065  1.00  0.00    -0.008 A 
HETATM    4  N   UNL     1      61.748  10.397   2.871  1.00  0.00    -0.365 N 
ATOM      5  HN  UNL     1      61.170  10.607   2.057  1.00  0.00     0.165 HD
HETATM    6  C   UNL     1      62.431   9.242   2.956  1.00  0.00     0.042 A 
HETATM    7  C   UNL     1      63.021   7.086   1.973  1.00  0.00     0.020 A 
HETATM    8  C   UNL     1      62.338   8.311   1.930  1.00  0.00     0.031 A 
HETATM    9  C   UNL     1      61.852  11.273   3.897  1.00  0.00     0.088 A 
HETATM   10  C   UNL     1      63.330   9.862   5.105  1.00  0.00     0.015 A 
HETATM   11  C   UNL     1      62.620  11.053   5.024  1.00  0.00     0.018 A 
ENDROOT
BRANCH   1  12
HETATM   12  C   UNL     1      64.578   5.497   3.190  1.00  0.00     0.292 C 
HETATM   13  O   UNL     1      65.787   5.416   3.026  1.00  0.00    -0.259 OA
BRANCH  12  14
HETATM   14  O   UNL     1      63.748   4.473   3.501  1.00  0.00    -0.323 OA
HETATM   15  C   UNL     1      63.854   4.004   4.849  1.00  0.00     0.213 C 
ENDBRANCH  12  14
ENDBRANCH   1  12
TORSDOF 2
ENDMDL
