MODEL 1
REMARK VINA RESULT:      -5.5      0.000      0.000
REMARK  1 active torsions:
REMARK  status: ('A' for Active; 'I' for Inactive)
REMARK    1  A    between atoms: C_2  and  N_3 
ROOT
HETATM    1  C   UNL     1      63.595   8.367   4.002  1.00  0.00     0.017 A 
HETATM    2  C   UNL     1      62.395   9.019   3.582  1.00  0.00     0.044 A 
HETATM    3  C   UNL     1      64.341   8.950   5.057  1.00  0.00     0.046 A 
HETATM    4  C   UNL     1      64.064   7.142   3.463  1.00  0.00     0.018 A 
HETATM    5  C   UNL     1      65.497   8.326   5.507  1.00  0.00     0.054 A 
HETATM    6  N   UNL     1      63.973  10.080   5.674  1.00  0.00    -0.365 N 
ATOM      7  HN  UNL     1      64.534  10.476   6.428  1.00  0.00     0.165 HD
HETATM    8  C   UNL     1      65.953   7.142   4.937  1.00  0.00     0.036 A 
HETATM    9  C   UNL     1      62.037  10.199   4.249  1.00  0.00     0.047 A 
HETATM   10  C   UNL     1      65.242   6.545   3.907  1.00  0.00     0.025 A 
HETATM   11  C   UNL     1      62.837  10.677   5.265  1.00  0.00     0.090 A 
HETATM   12 CL   UNL     1      67.397   6.405   5.516  1.00  0.00    -0.084 Cl
ENDROOT
BRANCH   2  13
HETATM   13  N   UNL     1      61.563   8.470   2.607  1.00  0.00    -0.377 N 
HETATM   14  C   UNL     1      60.254   7.911   2.985  1.00  0.00     0.150 C 
HETATM   15  C   UNL     1      59.861   6.824   1.957  1.00  0.00     0.252 C 
HETATM   16  N   UNL     1      59.852   7.303   0.554  1.00  0.00    -0.072 N 
HETATM   17  C   UNL     1      61.156   7.937   0.247  1.00  0.00     0.252 C 
HETATM   18  H   UNL     1      59.700   6.514  -0.074  1.00  0.00     0.277 HD
HETATM   19  H   UNL     1      59.102   7.982   0.429  1.00  0.00     0.277 HD
HETATM   20  C   UNL     1      61.559   9.049   1.251  1.00  0.00     0.150 C 
ENDBRANCH   2  13
TORSDOF 1
ENDMDL
MODEL 2
REMARK VINA RESULT:      -4.8      2.133      3.120
REMARK  1 active torsions:
REMARK  status: ('A' for Active; 'I' for Inactive)
REMARK    1  A    between atoms: C_2  and  N_3 
ROOT
HETATM    1  C   UNL     1      63.824   7.496   5.295  1.00  0.00     0.017 A 
HETATM    2  C   UNL     1      62.532   7.818   4.777  1.00  0.00     0.044 A 
HETATM    3  C   UNL     1      63.957   6.326   6.087  1.00  0.00     0.046 A 
HETATM    4  C   UNL     1      64.998   8.244   5.026  1.00  0.00     0.018 A 
HETATM    5  C   UNL     1      65.204   5.970   6.582  1.00  0.00     0.054 A 
HETATM    6  N   UNL     1      62.929   5.516   6.369  1.00  0.00    -0.365 N 
ATOM      7  HN  UNL     1      63.057   4.684   6.945  1.00  0.00     0.165 HD
HETATM    8  C   UNL     1      66.334   6.744   6.332  1.00  0.00     0.036 A 
HETATM    9  C   UNL     1      61.478   6.949   5.090  1.00  0.00     0.047 A 
HETATM   10  C   UNL     1      66.237   7.889   5.557  1.00  0.00     0.025 A 
HETATM   11  C   UNL     1      61.721   5.837   5.868  1.00  0.00     0.090 A 
HETATM   12 CL   UNL     1      67.860   6.273   6.973  1.00  0.00    -0.084 Cl
ENDROOT
BRANCH   2  13
HETATM   13  N   UNL     1      62.333   8.904   3.925  1.00  0.00    -0.377 N 
HETATM   14  C   UNL     1      62.626  10.270   4.392  1.00  0.00     0.150 C 
HETATM   15  C   UNL     1      61.740  11.265   3.607  1.00  0.00     0.252 C 
HETATM   16  N   UNL     1      61.885  11.162   2.135  1.00  0.00    -0.072 N 
HETATM   17  C   UNL     1      61.670   9.755   1.722  1.00  0.00     0.252 C 
HETATM   18  H   UNL     1      61.194  11.760   1.682  1.00  0.00     0.277 HD
HETATM   19  H   UNL     1      62.820  11.461   1.861  1.00  0.00     0.277 HD
HETATM   20  C   UNL     1      62.567   8.740   2.479  1.00  0.00     0.150 C 
ENDBRANCH   2  13
TORSDOF 1
ENDMDL
MODEL 3
REMARK VINA RESULT:      -4.8      3.080      6.051
REMARK  1 active torsions:
REMARK  status: ('A' for Active; 'I' for Inactive)
REMARK    1  A    between atoms: C_2  and  N_3 
ROOT
HETATM    1  C   UNL     1      64.164   7.513   4.084  1.00  0.00     0.017 A 
HETATM    2  C   UNL     1      64.894   6.286   4.144  1.00  0.00     0.044 A 
HETATM    3  C   UNL     1      63.328   7.742   2.962  1.00  0.00     0.046 A 
HETATM    4  C   UNL     1      64.183   8.499   5.103  1.00  0.00     0.018 A 
HETATM    5  C   UNL     1      62.584   8.912   2.888  1.00  0.00     0.054 A 
HETATM    6  N   UNL     1      63.193   6.863   1.961  1.00  0.00    -0.365 N 
ATOM      7  HN  UNL     1      62.586   7.059   1.166  1.00  0.00     0.165 HD
HETATM    8  C   UNL     1      62.648   9.879   3.885  1.00  0.00     0.036 A 
HETATM    9  C   UNL     1      64.730   5.387   3.081  1.00  0.00     0.047 A 
HETATM   10  C   UNL     1      63.453   9.682   4.997  1.00  0.00     0.025 A 
HETATM   11  C   UNL     1      63.887   5.711   2.039  1.00  0.00     0.090 A 
HETATM   12 CL   UNL     1      61.719  11.321   3.750  1.00  0.00    -0.084 Cl
ENDROOT
BRANCH   2  13
HETATM   13  N   UNL     1      65.675   5.950   5.249  1.00  0.00    -0.377 N 
HETATM   14  C   UNL     1      65.172   4.984   6.240  1.00  0.00     0.150 C 
HETATM   15  C   UNL     1      65.834   5.281   7.606  1.00  0.00     0.252 C 
HETATM   16  N   UNL     1      67.316   5.281   7.566  1.00  0.00    -0.072 N 
HETATM   17  C   UNL     1      67.774   6.198   6.495  1.00  0.00     0.252 C 
HETATM   18  H   UNL     1      67.682   5.596   8.464  1.00  0.00     0.277 HD
HETATM   19  H   UNL     1      67.653   4.338   7.377  1.00  0.00     0.277 HD
HETATM   20  C   UNL     1      67.142   5.903   5.109  1.00  0.00     0.150 C 
ENDBRANCH   2  13
TORSDOF 1
ENDMDL
MODEL 4
REMARK VINA RESULT:      -4.6      3.402      5.317
REMARK  1 active torsions:
REMARK  status: ('A' for Active; 'I' for Inactive)
REMARK    1  A    between atoms: C_2  and  N_3 
ROOT
HETATM    1  C   UNL     1      64.819   7.126   4.389  1.00  0.00     0.017 A 
HETATM    2  C   UNL     1      65.794   6.112   4.640  1.00  0.00     0.044 A 
HETATM    3  C   UNL     1      64.807   8.268   5.231  1.00  0.00     0.046 A 
HETATM    4  C   UNL     1      63.890   7.089   3.318  1.00  0.00     0.018 A 
HETATM    5  C   UNL     1      63.891   9.284   4.996  1.00  0.00     0.054 A 
HETATM    6  N   UNL     1      65.665   8.436   6.245  1.00  0.00    -0.365 N 
ATOM      7  HN  UNL     1      65.629   9.267   6.834  1.00  0.00     0.165 HD
HETATM    8  C   UNL     1      62.967   9.205   3.959  1.00  0.00     0.036 A 
HETATM    9  C   UNL     1      66.677   6.319   5.708  1.00  0.00     0.047 A 
HETATM   10  C   UNL     1      62.957   8.104   3.117  1.00  0.00     0.025 A 
HETATM   11  C   UNL     1      66.578   7.469   6.461  1.00  0.00     0.090 A 
HETATM   12 CL   UNL     1      61.841  10.482   3.708  1.00  0.00    -0.084 Cl
ENDROOT
BRANCH   2  13
HETATM   13  N   UNL     1      65.923   4.998   3.811  1.00  0.00    -0.377 N 
HETATM   14  C   UNL     1      67.116   4.846   2.961  1.00  0.00     0.150 C 
HETATM   15  C   UNL     1      66.743   3.991   1.728  1.00  0.00     0.252 C 
HETATM   16  N   UNL     1      66.160   2.672   2.068  1.00  0.00    -0.072 N 
HETATM   17  C   UNL     1      65.020   2.868   2.995  1.00  0.00     0.252 C 
HETATM   18  H   UNL     1      65.833   2.214   1.217  1.00  0.00     0.277 HD
HETATM   19  H   UNL     1      66.868   2.089   2.513  1.00  0.00     0.277 HD
HETATM   20  C   UNL     1      65.377   3.701   4.254  1.00  0.00     0.150 C 
ENDBRANCH   2  13
TORSDOF 1
ENDMDL
MODEL 5
REMARK VINA RESULT:      -4.6      3.512      6.498
REMARK  1 active torsions:
REMARK  status: ('A' for Active; 'I' for Inactive)
REMARK    1  A    between atoms: C_2  and  N_3 
ROOT
HETATM    1  C   UNL     1      59.293   7.613   2.863  1.00  0.00     0.017 A 
HETATM    2  C   UNL     1      60.635   8.023   2.597  1.00  0.00     0.044 A 
HETATM    3  C   UNL     1      58.457   7.296   1.761  1.00  0.00     0.046 A 
HETATM    4  C   UNL     1      58.753   7.453   4.164  1.00  0.00     0.018 A 
HETATM    5  C   UNL     1      57.156   6.867   1.988  1.00  0.00     0.054 A 
HETATM    6  N   UNL     1      58.869   7.365   0.489  1.00  0.00    -0.365 N 
ATOM      7  HN  UNL     1      58.242   7.133  -0.281  1.00  0.00     0.165 HD
HETATM    8  C   UNL     1      56.641   6.753   3.276  1.00  0.00     0.036 A 
HETATM    9  C   UNL     1      61.035   8.083   1.254  1.00  0.00     0.047 A 
HETATM   10  C   UNL     1      57.435   7.050   4.372  1.00  0.00     0.025 A 
HETATM   11  C   UNL     1      60.139   7.750   0.261  1.00  0.00     0.090 A 
HETATM   12 CL   UNL     1      55.020   6.228   3.513  1.00  0.00    -0.084 Cl
ENDROOT
BRANCH   2  13
HETATM   13  N   UNL     1      61.543   8.275   3.624  1.00  0.00    -0.377 N 
HETATM   14  C   UNL     1      62.229   7.156   4.292  1.00  0.00     0.150 C 
HETATM   15  C   UNL     1      62.604   7.588   5.729  1.00  0.00     0.252 C 
HETATM   16  N   UNL     1      63.419   8.825   5.788  1.00  0.00    -0.072 N 
HETATM   17  C   UNL     1      62.733   9.897   5.029  1.00  0.00     0.252 C 
HETATM   18  H   UNL     1      63.530   9.113   6.760  1.00  0.00     0.277 HD
HETATM   19  H   UNL     1      64.337   8.650   5.382  1.00  0.00     0.277 HD
HETATM   20  C   UNL     1      62.370   9.495   3.575  1.00  0.00     0.150 C 
ENDBRANCH   2  13
TORSDOF 1
ENDMDL
MODEL 6
REMARK VINA RESULT:      -4.4      1.773      2.404
REMARK  1 active torsions:
REMARK  status: ('A' for Active; 'I' for Inactive)
REMARK    1  A    between atoms: C_2  and  N_3 
ROOT
HETATM    1  C   UNL     1      64.694   6.868   3.622  1.00  0.00     0.017 A 
HETATM    2  C   UNL     1      63.781   7.919   3.944  1.00  0.00     0.044 A 
HETATM    3  C   UNL     1      65.906   6.784   4.354  1.00  0.00     0.046 A 
HETATM    4  C   UNL     1      64.444   5.867   2.649  1.00  0.00     0.018 A 
HETATM    5  C   UNL     1      66.801   5.757   4.086  1.00  0.00     0.054 A 
HETATM    6  N   UNL     1      66.231   7.644   5.328  1.00  0.00    -0.365 N 
ATOM      7  HN  UNL     1      67.112   7.558   5.834  1.00  0.00     0.165 HD
HETATM    8  C   UNL     1      66.545   4.809   3.100  1.00  0.00     0.036 A 
HETATM    9  C   UNL     1      64.151   8.801   4.968  1.00  0.00     0.047 A 
HETATM   10  C   UNL     1      65.367   4.861   2.372  1.00  0.00     0.025 A 
HETATM   11  C   UNL     1      65.355   8.625   5.617  1.00  0.00     0.090 A 
HETATM   12 CL   UNL     1      67.686   3.558   2.790  1.00  0.00    -0.084 Cl
ENDROOT
BRANCH   2  13
HETATM   13  N   UNL     1      62.535   8.023   3.327  1.00  0.00    -0.377 N 
HETATM   14  C   UNL     1      61.328   7.540   4.018  1.00  0.00     0.150 C 
HETATM   15  C   UNL     1      60.274   7.143   2.959  1.00  0.00     0.252 C 
HETATM   16  N   UNL     1      59.944   8.229   2.006  1.00  0.00    -0.072 N 
HETATM   17  C   UNL     1      61.196   8.744   1.402  1.00  0.00     0.252 C 
HETATM   18  H   UNL     1      59.335   7.866   1.272  1.00  0.00     0.277 HD
HETATM   19  H   UNL     1      59.464   8.983   2.498  1.00  0.00     0.277 HD
HETATM   20  C   UNL     1      62.259   9.174   2.446  1.00  0.00     0.150 C 
ENDBRANCH   2  13
TORSDOF 1
ENDMDL
MODEL 7
REMARK VINA RESULT:      -4.4      1.475      1.477
REMARK  1 active torsions:
REMARK  status: ('A' for Active; 'I' for Inactive)
REMARK    1  A    between atoms: C_2  and  N_3 
ROOT
HETATM    1  C   UNL     1      62.607   7.618   4.377  1.00  0.00     0.017 A 
HETATM    2  C   UNL     1      61.819   8.525   3.604  1.00  0.00     0.044 A 
HETATM    3  C   UNL     1      63.446   8.152   5.388  1.00  0.00     0.046 A 
HETATM    4  C   UNL     1      62.567   6.208   4.234  1.00  0.00     0.018 A 
HETATM    5  C   UNL     1      64.202   7.295   6.176  1.00  0.00     0.054 A 
HETATM    6  N   UNL     1      63.532   9.463   5.648  1.00  0.00    -0.365 N 
ATOM      7  HN  UNL     1      64.148   9.816   6.380  1.00  0.00     0.165 HD
HETATM    8  C   UNL     1      64.171   5.917   5.989  1.00  0.00     0.036 A 
HETATM    9  C   UNL     1      61.931   9.890   3.901  1.00  0.00     0.047 A 
HETATM   10  C   UNL     1      63.357   5.365   5.013  1.00  0.00     0.025 A 
HETATM   11  C   UNL     1      62.778  10.300   4.909  1.00  0.00     0.090 A 
HETATM   12 CL   UNL     1      65.133   4.890   6.980  1.00  0.00    -0.084 Cl
ENDROOT
BRANCH   2  13
HETATM   13  N   UNL     1      60.910   8.075   2.646  1.00  0.00    -0.377 N 
HETATM   14  C   UNL     1      59.563   7.643   3.055  1.00  0.00     0.150 C 
HETATM   15  C   UNL     1      59.036   6.617   2.025  1.00  0.00     0.252 C 
HETATM   16  N   UNL     1      59.036   7.114   0.629  1.00  0.00    -0.072 N 
HETATM   17  C   UNL     1      60.388   7.620   0.293  1.00  0.00     0.252 C 
HETATM   18  H   UNL     1      58.788   6.354  -0.004  1.00  0.00     0.277 HD
HETATM   19  H   UNL     1      58.354   7.867   0.534  1.00  0.00     0.277 HD
HETATM   20  C   UNL     1      60.927   8.672   1.298  1.00  0.00     0.150 C 
ENDBRANCH   2  13
TORSDOF 1
ENDMDL
MODEL 8
REMARK VINA RESULT:      -4.3      3.749      6.355
REMARK  1 active torsions:
REMARK  status: ('A' for Active; 'I' for Inactive)
REMARK    1  A    between atoms: C_2  and  N_3 
ROOT
HETATM    1  C   UNL     1      63.522   6.558   5.848  1.00  0.00     0.017 A 
HETATM    2  C   UNL     1      64.828   7.125   5.971  1.00  0.00     0.044 A 
HETATM    3  C   UNL     1      62.528   7.303   5.163  1.00  0.00     0.046 A 
HETATM    4  C   UNL     1      63.167   5.270   6.324  1.00  0.00     0.018 A 
HETATM    5  C   UNL     1      61.258   6.767   5.002  1.00  0.00     0.054 A 
HETATM    6  N   UNL     1      62.759   8.509   4.630  1.00  0.00    -0.365 N 
ATOM      7  HN  UNL     1      62.021   9.021   4.146  1.00  0.00     0.165 HD
HETATM    8  C   UNL     1      60.927   5.515   5.511  1.00  0.00     0.036 A 
HETATM    9  C   UNL     1      65.036   8.389   5.401  1.00  0.00     0.047 A 
HETATM   10  C   UNL     1      61.878   4.761   6.180  1.00  0.00     0.025 A 
HETATM   11  C   UNL     1      63.997   9.024   4.754  1.00  0.00     0.090 A 
HETATM   12 CL   UNL     1      59.337   4.891   5.299  1.00  0.00    -0.084 Cl
ENDROOT
BRANCH   2  13
HETATM   13  N   UNL     1      65.880   6.424   6.559  1.00  0.00    -0.377 N 
HETATM   14  C   UNL     1      67.074   6.087   5.765  1.00  0.00     0.150 C 
HETATM   15  C   UNL     1      67.726   4.818   6.363  1.00  0.00     0.252 C 
HETATM   16  N   UNL     1      68.058   4.936   7.803  1.00  0.00    -0.072 N 
HETATM   17  C   UNL     1      66.850   5.364   8.547  1.00  0.00     0.252 C 
HETATM   18  H   UNL     1      68.374   4.033   8.155  1.00  0.00     0.277 HD
HETATM   19  H   UNL     1      68.800   5.624   7.928  1.00  0.00     0.277 HD
HETATM   20  C   UNL     1      66.193   6.651   7.982  1.00  0.00     0.150 C 
ENDBRANCH   2  13
TORSDOF 1
ENDMDL
MODEL 9
REMARK VINA RESULT:      -4.2      3.864      5.013
REMARK  1 active torsions:
REMARK  status: ('A' for Active; 'I' for Inactive)
REMARK    1  A    between atoms: C_2  and  N_3 
ROOT
HETATM    1  C   UNL     1      63.032   7.035   5.231  1.00  0.00     0.017 A 
HETATM    2  C   UNL     1      63.431   5.805   5.838  1.00  0.00     0.044 A 
HETATM    3  C   UNL     1      63.858   8.174   5.415  1.00  0.00     0.046 A 
HETATM    4  C   UNL     1      61.884   7.181   4.411  1.00  0.00     0.018 A 
HETATM    5  C   UNL     1      63.512   9.377   4.814  1.00  0.00     0.054 A 
HETATM    6  N   UNL     1      64.989   8.146   6.129  1.00  0.00    -0.365 N 
ATOM      7  HN  UNL     1      65.560   8.984   6.244  1.00  0.00     0.165 HD
HETATM    8  C   UNL     1      62.360   9.500   4.043  1.00  0.00     0.036 A 
HETATM    9  C   UNL     1      64.622   5.810   6.578  1.00  0.00     0.047 A 
HETATM   10  C   UNL     1      61.536   8.404   3.842  1.00  0.00     0.025 A 
HETATM   11  C   UNL     1      65.350   6.976   6.689  1.00  0.00     0.090 A 
HETATM   12 CL   UNL     1      61.961  11.012   3.325  1.00  0.00    -0.084 Cl
ENDROOT
BRANCH   2  13
HETATM   13  N   UNL     1      62.719   4.623   5.640  1.00  0.00    -0.377 N 
HETATM   14  C   UNL     1      63.278   3.559   4.790  1.00  0.00     0.150 C 
HETATM   15  C   UNL     1      62.113   2.731   4.199  1.00  0.00     0.252 C 
HETATM   16  N   UNL     1      61.197   2.171   5.221  1.00  0.00    -0.072 N 
HETATM   17  C   UNL     1      60.731   3.263   6.108  1.00  0.00     0.252 C 
HETATM   18  H   UNL     1      60.396   1.738   4.761  1.00  0.00     0.277 HD
HETATM   19  H   UNL     1      61.689   1.467   5.772  1.00  0.00     0.277 HD
HETATM   20  C   UNL     1      61.884   4.092   6.734  1.00  0.00     0.150 C 
ENDBRANCH   2  13
TORSDOF 1
ENDMDL
