MODEL 1
REMARK VINA RESULT:      -5.4      0.000      0.000
REMARK  5 active torsions:
REMARK  status: ('A' for Active; 'I' for Inactive)
REMARK    1  A    between atoms: N_1  and  C_3 
REMARK    2  A    between atoms: N_2  and  C_10 
REMARK    3  A    between atoms: C_3  and  C_8 
REMARK    4  A    between atoms: N_9  and  C_11 
REMARK    5  A    between atoms: C_10  and  C_11 
ROOT
HETATM    1  N   UNL     1      64.263   7.504   4.903  1.00  0.00    -0.064 N 
HETATM    2  N   UNL     1      66.315   7.108   7.121  1.00  0.00    -0.066 N 
HETATM    3  C   UNL     1      64.318   6.288   5.739  1.00  0.00     0.263 C 
HETATM    4  C   UNL     1      65.576   8.171   4.909  1.00  0.00     0.263 C 
HETATM    5  C   UNL     1      64.988   6.457   7.124  1.00  0.00     0.262 C 
HETATM    6  C   UNL     1      66.242   8.334   6.299  1.00  0.00     0.262 C 
HETATM    7  H   UNL     1      64.049   7.212   3.949  1.00  0.00     0.280 HD
HETATM    8  H   UNL     1      66.569   7.378   8.071  1.00  0.00     0.280 HD
ENDROOT
BRANCH   1   9
HETATM    9  C   UNL     1      63.168   8.418   5.270  1.00  0.00     0.273 C 
BRANCH   9  10
HETATM   10  C   UNL     1      62.648   9.211   4.082  1.00  0.00    -0.033 A 
HETATM   11  C   UNL     1      62.595   8.635   2.804  1.00  0.00     0.009 A 
HETATM   12  C   UNL     1      62.204   9.397   1.700  1.00  0.00     0.001 A 
HETATM   13  C   UNL     1      61.850  10.736   1.862  1.00  0.00     0.000 A 
HETATM   14  C   UNL     1      61.858  11.309   3.132  1.00  0.00     0.001 A 
HETATM   15  C   UNL     1      62.245  10.548   4.236  1.00  0.00     0.009 A 
ENDBRANCH   9  10
ENDBRANCH   1   9
BRANCH   2  16
HETATM   16  C   UNL     1      67.380   6.181   6.697  1.00  0.00     0.262 C 
BRANCH  16  17
HETATM   17  C   UNL     1      67.980   5.384   7.882  1.00  0.00     0.257 C 
BRANCH  17  18
HETATM   18  N   UNL     1      68.070   6.187   9.109  1.00  0.00    -0.078 N 
HETATM   19  H   UNL     1      67.186   6.135   9.616  1.00  0.00     0.274 HD
HETATM   20  H   UNL     1      68.265   7.158   8.867  1.00  0.00     0.274 HD
HETATM   21  H   UNL     1      68.821   5.826   9.698  1.00  0.00     0.274 HD
ENDBRANCH  17  18
ENDBRANCH  16  17
ENDBRANCH   2  16
TORSDOF 5
ENDMDL
MODEL 2
REMARK VINA RESULT:      -5.3      1.178      1.674
REMARK  5 active torsions:
REMARK  status: ('A' for Active; 'I' for Inactive)
REMARK    1  A    between atoms: N_1  and  C_3 
REMARK    2  A    between atoms: N_2  and  C_10 
REMARK    3  A    between atoms: C_3  and  C_8 
REMARK    4  A    between atoms: N_9  and  C_11 
REMARK    5  A    between atoms: C_10  and  C_11 
ROOT
HETATM    1  N   UNL     1      63.941   8.037   5.524  1.00  0.00    -0.064 N 
HETATM    2  N   UNL     1      65.838   5.969   6.712  1.00  0.00    -0.066 N 
HETATM    3  C   UNL     1      65.394   8.261   5.653  1.00  0.00     0.263 C 
HETATM    4  C   UNL     1      63.507   7.013   6.489  1.00  0.00     0.263 C 
HETATM    5  C   UNL     1      66.266   6.983   5.725  1.00  0.00     0.262 C 
HETATM    6  C   UNL     1      64.386   5.738   6.558  1.00  0.00     0.262 C 
HETATM    7  H   UNL     1      63.473   8.916   5.747  1.00  0.00     0.280 HD
HETATM    8  H   UNL     1      66.320   5.088   6.532  1.00  0.00     0.280 HD
ENDROOT
BRANCH   1   9
HETATM    9  C   UNL     1      63.517   7.725   4.148  1.00  0.00     0.273 C 
BRANCH   9  10
HETATM   10  C   UNL     1      62.824   8.898   3.473  1.00  0.00    -0.033 A 
HETATM   11  C   UNL     1      62.524   8.862   2.104  1.00  0.00     0.009 A 
HETATM   12  C   UNL     1      61.971   9.978   1.470  1.00  0.00     0.001 A 
HETATM   13  C   UNL     1      61.700  11.135   2.199  1.00  0.00     0.000 A 
HETATM   14  C   UNL     1      61.955  11.170   3.568  1.00  0.00     0.001 A 
HETATM   15  C   UNL     1      62.503  10.055   4.203  1.00  0.00     0.009 A 
ENDBRANCH   9  10
ENDBRANCH   1   9
BRANCH   2  16
HETATM   16  C   UNL     1      66.230   6.339   8.084  1.00  0.00     0.262 C 
BRANCH  16  17
HETATM   17  C   UNL     1      67.299   5.384   8.673  1.00  0.00     0.257 C 
BRANCH  17  18
HETATM   18  N   UNL     1      66.858   3.983   8.678  1.00  0.00    -0.078 N 
HETATM   19  H   UNL     1      66.790   3.644   7.718  1.00  0.00     0.274 HD
HETATM   20  H   UNL     1      65.945   3.915   9.127  1.00  0.00     0.274 HD
HETATM   21  H   UNL     1      67.533   3.415   9.191  1.00  0.00     0.274 HD
ENDBRANCH  17  18
ENDBRANCH  16  17
ENDBRANCH   2  16
TORSDOF 5
ENDMDL
MODEL 3
REMARK VINA RESULT:      -5.0      1.373      1.702
REMARK  5 active torsions:
REMARK  status: ('A' for Active; 'I' for Inactive)
REMARK    1  A    between atoms: N_1  and  C_3 
REMARK    2  A    between atoms: N_2  and  C_10 
REMARK    3  A    between atoms: C_3  and  C_8 
REMARK    4  A    between atoms: N_9  and  C_11 
REMARK    5  A    between atoms: C_10  and  C_11 
ROOT
HETATM    1  N   UNL     1      65.324   7.069   5.581  1.00  0.00    -0.064 N 
HETATM    2  N   UNL     1      67.815   6.484   7.236  1.00  0.00    -0.066 N 
HETATM    3  C   UNL     1      65.267   6.552   6.963  1.00  0.00     0.263 C 
HETATM    4  C   UNL     1      66.626   6.738   4.979  1.00  0.00     0.263 C 
HETATM    5  C   UNL     1      66.512   6.838   7.838  1.00  0.00     0.262 C 
HETATM    6  C   UNL     1      67.868   7.025   5.861  1.00  0.00     0.262 C 
HETATM    7  H   UNL     1      64.589   6.603   5.048  1.00  0.00     0.280 HD
HETATM    8  H   UNL     1      68.570   6.909   7.774  1.00  0.00     0.280 HD
ENDROOT
BRANCH   1   9
HETATM    9  C   UNL     1      65.008   8.504   5.480  1.00  0.00     0.273 C 
BRANCH   9  10
HETATM   10  C   UNL     1      63.811   8.775   4.583  1.00  0.00    -0.033 A 
HETATM   11  C   UNL     1      63.461   7.876   3.564  1.00  0.00     0.009 A 
HETATM   12  C   UNL     1      62.418   8.174   2.684  1.00  0.00     0.001 A 
HETATM   13  C   UNL     1      61.705   9.365   2.820  1.00  0.00     0.000 A 
HETATM   14  C   UNL     1      62.015  10.247   3.853  1.00  0.00     0.001 A 
HETATM   15  C   UNL     1      63.054   9.948   4.735  1.00  0.00     0.009 A 
ENDBRANCH   9  10
ENDBRANCH   1   9
BRANCH   2  16
HETATM   16  C   UNL     1      68.075   5.034   7.305  1.00  0.00     0.262 C 
BRANCH  16  17
HETATM   17  C   UNL     1      67.984   4.483   8.751  1.00  0.00     0.257 C 
BRANCH  17  18
HETATM   18  N   UNL     1      67.257   3.209   8.820  1.00  0.00    -0.078 N 
HETATM   19  H   UNL     1      67.910   2.436   8.690  1.00  0.00     0.274 HD
HETATM   20  H   UNL     1      66.547   3.181   8.088  1.00  0.00     0.274 HD
HETATM   21  H   UNL     1      66.807   3.123   9.733  1.00  0.00     0.274 HD
ENDBRANCH  17  18
ENDBRANCH  16  17
ENDBRANCH   2  16
TORSDOF 5
ENDMDL
MODEL 4
REMARK VINA RESULT:      -4.2      2.553      3.284
REMARK  5 active torsions:
REMARK  status: ('A' for Active; 'I' for Inactive)
REMARK    1  A    between atoms: N_1  and  C_3 
REMARK    2  A    between atoms: N_2  and  C_10 
REMARK    3  A    between atoms: C_3  and  C_8 
REMARK    4  A    between atoms: N_9  and  C_11 
REMARK    5  A    between atoms: C_10  and  C_11 
ROOT
HETATM    1  N   UNL     1      62.376   7.389   3.836  1.00  0.00    -0.064 N 
HETATM    2  N   UNL     1      64.317   7.910   6.128  1.00  0.00    -0.066 N 
HETATM    3  C   UNL     1      62.337   6.640   5.108  1.00  0.00     0.263 C 
HETATM    4  C   UNL     1      63.718   7.960   3.636  1.00  0.00     0.263 C 
HETATM    5  C   UNL     1      62.960   7.359   6.330  1.00  0.00     0.262 C 
HETATM    6  C   UNL     1      64.337   8.676   4.863  1.00  0.00     0.262 C 
HETATM    7  H   UNL     1      62.185   6.728   3.083  1.00  0.00     0.280 HD
HETATM    8  H   UNL     1      64.546   8.549   6.889  1.00  0.00     0.280 HD
ENDROOT
BRANCH   1   9
HETATM    9  C   UNL     1      61.313   8.404   3.723  1.00  0.00     0.273 C 
BRANCH   9  10
HETATM   10  C   UNL     1      60.247   8.019   2.709  1.00  0.00    -0.033 A 
HETATM   11  C   UNL     1      59.040   7.440   3.124  1.00  0.00     0.009 A 
HETATM   12  C   UNL     1      58.103   7.004   2.183  1.00  0.00     0.001 A 
HETATM   13  C   UNL     1      58.358   7.154   0.820  1.00  0.00     0.000 A 
HETATM   14  C   UNL     1      59.535   7.765   0.396  1.00  0.00     0.001 A 
HETATM   15  C   UNL     1      60.469   8.204   1.335  1.00  0.00     0.009 A 
ENDBRANCH   9  10
ENDBRANCH   1   9
BRANCH   2  16
HETATM   16  C   UNL     1      65.350   6.861   6.193  1.00  0.00     0.262 C 
BRANCH  16  17
HETATM   17  C   UNL     1      66.404   7.134   7.296  1.00  0.00     0.257 C 
BRANCH  17  18
HETATM   18  N   UNL     1      66.970   8.486   7.207  1.00  0.00    -0.078 N 
HETATM   19  H   UNL     1      67.847   8.455   6.685  1.00  0.00     0.274 HD
HETATM   20  H   UNL     1      67.146   8.845   8.145  1.00  0.00     0.274 HD
HETATM   21  H   UNL     1      66.311   9.100   6.726  1.00  0.00     0.274 HD
ENDBRANCH  17  18
ENDBRANCH  16  17
ENDBRANCH   2  16
TORSDOF 5
ENDMDL
MODEL 5
REMARK VINA RESULT:      -4.1      4.499      7.103
REMARK  5 active torsions:
REMARK  status: ('A' for Active; 'I' for Inactive)
REMARK    1  A    between atoms: N_1  and  C_3 
REMARK    2  A    between atoms: N_2  and  C_10 
REMARK    3  A    between atoms: C_3  and  C_8 
REMARK    4  A    between atoms: N_9  and  C_11 
REMARK    5  A    between atoms: C_10  and  C_11 
ROOT
HETATM    1  N   UNL     1      60.250   8.543   1.818  1.00  0.00    -0.064 N 
HETATM    2  N   UNL     1      59.479   5.649   1.255  1.00  0.00    -0.066 N 
HETATM    3  C   UNL     1      59.835   7.601   2.877  1.00  0.00     0.263 C 
HETATM    4  C   UNL     1      59.726   8.092   0.518  1.00  0.00     0.263 C 
HETATM    5  C   UNL     1      60.026   6.099   2.551  1.00  0.00     0.262 C 
HETATM    6  C   UNL     1      59.918   6.587   0.200  1.00  0.00     0.262 C 
HETATM    7  H   UNL     1      59.842   9.452   2.038  1.00  0.00     0.280 HD
HETATM    8  H   UNL     1      59.845   4.724   1.028  1.00  0.00     0.280 HD
ENDROOT
BRANCH   1   9
HETATM    9  C   UNL     1      61.703   8.782   1.785  1.00  0.00     0.273 C 
BRANCH   9  10
HETATM   10  C   UNL     1      62.227   9.364   3.088  1.00  0.00    -0.033 A 
HETATM   11  C   UNL     1      61.838  10.644   3.509  1.00  0.00     0.009 A 
HETATM   12  C   UNL     1      62.393  11.211   4.659  1.00  0.00     0.001 A 
HETATM   13  C   UNL     1      63.331  10.501   5.407  1.00  0.00     0.000 A 
HETATM   14  C   UNL     1      63.695   9.212   5.024  1.00  0.00     0.001 A 
HETATM   15  C   UNL     1      63.138   8.644   3.878  1.00  0.00     0.009 A 
ENDBRANCH   9  10
ENDBRANCH   1   9
BRANCH   2  16
HETATM   16  C   UNL     1      58.016   5.472   1.308  1.00  0.00     0.262 C 
BRANCH  16  17
HETATM   17  C   UNL     1      57.566   4.612   2.516  1.00  0.00     0.257 C 
BRANCH  17  18
HETATM   18  N   UNL     1      56.475   5.238   3.274  1.00  0.00    -0.078 N 
HETATM   19  H   UNL     1      55.596   5.115   2.771  1.00  0.00     0.274 HD
HETATM   20  H   UNL     1      56.666   6.233   3.387  1.00  0.00     0.274 HD
HETATM   21  H   UNL     1      56.404   4.799   4.193  1.00  0.00     0.274 HD
ENDBRANCH  17  18
ENDBRANCH  16  17
ENDBRANCH   2  16
TORSDOF 5
ENDMDL
MODEL 6
REMARK VINA RESULT:      -4.0      2.551      6.704
REMARK  5 active torsions:
REMARK  status: ('A' for Active; 'I' for Inactive)
REMARK    1  A    between atoms: N_1  and  C_3 
REMARK    2  A    between atoms: N_2  and  C_10 
REMARK    3  A    between atoms: C_3  and  C_8 
REMARK    4  A    between atoms: N_9  and  C_11 
REMARK    5  A    between atoms: C_10  and  C_11 
ROOT
HETATM    1  N   UNL     1      63.669   7.837   3.844  1.00  0.00    -0.064 N 
HETATM    2  N   UNL     1      60.622   7.899   3.863  1.00  0.00    -0.066 N 
HETATM    3  C   UNL     1      62.880   8.788   3.037  1.00  0.00     0.263 C 
HETATM    4  C   UNL     1      62.845   6.661   4.173  1.00  0.00     0.263 C 
HETATM    5  C   UNL     1      61.451   9.083   3.555  1.00  0.00     0.262 C 
HETATM    6  C   UNL     1      61.416   6.964   4.688  1.00  0.00     0.262 C 
HETATM    7  H   UNL     1      64.461   7.533   3.276  1.00  0.00     0.280 HD
HETATM    8  H   UNL     1      59.804   8.182   4.401  1.00  0.00     0.280 HD
ENDROOT
BRANCH   1   9
HETATM    9  C   UNL     1      64.278   8.447   5.039  1.00  0.00     0.273 C 
BRANCH   9  10
HETATM   10  C   UNL     1      65.475   7.661   5.548  1.00  0.00    -0.033 A 
HETATM   11  C   UNL     1      65.400   6.936   6.746  1.00  0.00     0.009 A 
HETATM   12  C   UNL     1      66.530   6.292   7.256  1.00  0.00     0.001 A 
HETATM   13  C   UNL     1      67.742   6.353   6.568  1.00  0.00     0.000 A 
HETATM   14  C   UNL     1      67.820   7.035   5.356  1.00  0.00     0.001 A 
HETATM   15  C   UNL     1      66.691   7.675   4.844  1.00  0.00     0.009 A 
ENDBRANCH   9  10
ENDBRANCH   1   9
BRANCH   2  16
HETATM   16  C   UNL     1      60.074   7.281   2.642  1.00  0.00     0.262 C 
BRANCH  16  17
HETATM   17  C   UNL     1      58.526   7.221   2.651  1.00  0.00     0.257 C 
BRANCH  17  18
HETATM   18  N   UNL     1      57.943   7.977   3.768  1.00  0.00    -0.078 N 
HETATM   19  H   UNL     1      57.626   7.329   4.489  1.00  0.00     0.274 HD
HETATM   20  H   UNL     1      57.151   8.525   3.432  1.00  0.00     0.274 HD
HETATM   21  H   UNL     1      58.648   8.602   4.160  1.00  0.00     0.274 HD
ENDBRANCH  17  18
ENDBRANCH  16  17
ENDBRANCH   2  16
TORSDOF 5
ENDMDL
MODEL 7
REMARK VINA RESULT:      -4.0      3.396      4.259
REMARK  5 active torsions:
REMARK  status: ('A' for Active; 'I' for Inactive)
REMARK    1  A    between atoms: N_1  and  C_3 
REMARK    2  A    between atoms: N_2  and  C_10 
REMARK    3  A    between atoms: C_3  and  C_8 
REMARK    4  A    between atoms: N_9  and  C_11 
REMARK    5  A    between atoms: C_10  and  C_11 
ROOT
HETATM    1  N   UNL     1      61.976   7.486   4.755  1.00  0.00    -0.064 N 
HETATM    2  N   UNL     1      64.965   6.903   4.879  1.00  0.00    -0.066 N 
HETATM    3  C   UNL     1      62.912   7.857   3.676  1.00  0.00     0.263 C 
HETATM    4  C   UNL     1      62.712   7.336   6.022  1.00  0.00     0.263 C 
HETATM    5  C   UNL     1      64.220   7.031   3.608  1.00  0.00     0.262 C 
HETATM    6  C   UNL     1      64.021   6.510   5.947  1.00  0.00     0.262 C 
HETATM    7  H   UNL     1      61.304   8.247   4.855  1.00  0.00     0.280 HD
HETATM    8  H   UNL     1      65.669   6.170   4.793  1.00  0.00     0.280 HD
ENDROOT
BRANCH   1   9
HETATM    9  C   UNL     1      61.157   6.303   4.439  1.00  0.00     0.273 C 
BRANCH   9  10
HETATM   10  C   UNL     1      59.681   6.522   4.729  1.00  0.00    -0.033 A 
HETATM   11  C   UNL     1      58.893   7.310   3.878  1.00  0.00     0.009 A 
HETATM   12  C   UNL     1      57.561   7.583   4.198  1.00  0.00     0.001 A 
HETATM   13  C   UNL     1      56.999   7.062   5.363  1.00  0.00     0.000 A 
HETATM   14  C   UNL     1      57.759   6.244   6.196  1.00  0.00     0.001 A 
HETATM   15  C   UNL     1      59.088   5.967   5.875  1.00  0.00     0.009 A 
ENDBRANCH   9  10
ENDBRANCH   1   9
BRANCH   2  16
HETATM   16  C   UNL     1      65.729   8.124   5.192  1.00  0.00     0.262 C 
BRANCH  16  17
HETATM   17  C   UNL     1      66.985   7.833   6.051  1.00  0.00     0.257 C 
BRANCH  17  18
HETATM   18  N   UNL     1      67.007   8.616   7.294  1.00  0.00    -0.078 N 
HETATM   19  H   UNL     1      67.294   8.017   8.069  1.00  0.00     0.274 HD
HETATM   20  H   UNL     1      66.076   8.988   7.479  1.00  0.00     0.274 HD
HETATM   21  H   UNL     1      67.669   9.387   7.199  1.00  0.00     0.274 HD
ENDBRANCH  17  18
ENDBRANCH  16  17
ENDBRANCH   2  16
TORSDOF 5
ENDMDL
MODEL 8
REMARK VINA RESULT:      -4.0      2.292      6.697
REMARK  5 active torsions:
REMARK  status: ('A' for Active; 'I' for Inactive)
REMARK    1  A    between atoms: N_1  and  C_3 
REMARK    2  A    between atoms: N_2  and  C_10 
REMARK    3  A    between atoms: C_3  and  C_8 
REMARK    4  A    between atoms: N_9  and  C_11 
REMARK    5  A    between atoms: C_10  and  C_11 
ROOT
HETATM    1  N   UNL     1      63.436   6.286   4.420  1.00  0.00    -0.064 N 
HETATM    2  N   UNL     1      61.671   8.655   3.675  1.00  0.00    -0.066 N 
HETATM    3  C   UNL     1      63.977   7.560   3.904  1.00  0.00     0.263 C 
HETATM    4  C   UNL     1      62.030   6.139   4.009  1.00  0.00     0.263 C 
HETATM    5  C   UNL     1      63.076   8.802   4.109  1.00  0.00     0.262 C 
HETATM    6  C   UNL     1      61.135   7.387   4.215  1.00  0.00     0.262 C 
HETATM    7  H   UNL     1      63.980   5.530   4.003  1.00  0.00     0.280 HD
HETATM    8  H   UNL     1      61.112   9.421   4.050  1.00  0.00     0.280 HD
ENDROOT
BRANCH   1   9
HETATM    9  C   UNL     1      63.617   6.120   5.873  1.00  0.00     0.273 C 
BRANCH   9  10
HETATM   10  C   UNL     1      65.077   5.957   6.263  1.00  0.00    -0.033 A 
HETATM   11  C   UNL     1      65.667   6.813   7.204  1.00  0.00     0.009 A 
HETATM   12  C   UNL     1      67.031   6.718   7.490  1.00  0.00     0.001 A 
HETATM   13  C   UNL     1      67.816   5.760   6.851  1.00  0.00     0.000 A 
HETATM   14  C   UNL     1      67.234   4.876   5.945  1.00  0.00     0.001 A 
HETATM   15  C   UNL     1      65.871   4.968   5.661  1.00  0.00     0.009 A 
ENDBRANCH   9  10
ENDBRANCH   1   9
BRANCH   2  16
HETATM   16  C   UNL     1      61.534   8.772   2.211  1.00  0.00     0.262 C 
BRANCH  16  17
HETATM   17  C   UNL     1      62.102  10.108   1.668  1.00  0.00     0.257 C 
BRANCH  17  18
HETATM   18  N   UNL     1      61.409  11.278   2.222  1.00  0.00    -0.078 N 
HETATM   19  H   UNL     1      61.491  12.062   1.574  1.00  0.00     0.274 HD
HETATM   20  H   UNL     1      61.829  11.531   3.116  1.00  0.00     0.274 HD
HETATM   21  H   UNL     1      60.422  11.055   2.361  1.00  0.00     0.274 HD
ENDBRANCH  17  18
ENDBRANCH  16  17
ENDBRANCH   2  16
TORSDOF 5
ENDMDL
MODEL 9
REMARK VINA RESULT:      -3.9      1.775      2.434
REMARK  5 active torsions:
REMARK  status: ('A' for Active; 'I' for Inactive)
REMARK    1  A    between atoms: N_1  and  C_3 
REMARK    2  A    between atoms: N_2  and  C_10 
REMARK    3  A    between atoms: C_3  and  C_8 
REMARK    4  A    between atoms: N_9  and  C_11 
REMARK    5  A    between atoms: C_10  and  C_11 
ROOT
HETATM    1  N   UNL     1      63.649   6.763   4.610  1.00  0.00    -0.064 N 
HETATM    2  N   UNL     1      66.263   6.992   6.160  1.00  0.00    -0.066 N 
HETATM    3  C   UNL     1      64.003   7.948   5.417  1.00  0.00     0.263 C 
HETATM    4  C   UNL     1      64.402   5.592   5.088  1.00  0.00     0.263 C 
HETATM    5  C   UNL     1      65.517   8.166   5.660  1.00  0.00     0.262 C 
HETATM    6  C   UNL     1      65.916   5.818   5.331  1.00  0.00     0.262 C 
HETATM    7  H   UNL     1      62.653   6.588   4.742  1.00  0.00     0.280 HD
HETATM    8  H   UNL     1      67.266   7.158   6.073  1.00  0.00     0.280 HD
ENDROOT
BRANCH   1   9
HETATM    9  C   UNL     1      63.804   6.976   3.160  1.00  0.00     0.273 C 
BRANCH   9  10
HETATM   10  C   UNL     1      62.515   7.438   2.500  1.00  0.00    -0.033 A 
HETATM   11  C   UNL     1      61.291   6.829   2.812  1.00  0.00     0.009 A 
HETATM   12  C   UNL     1      60.125   7.195   2.135  1.00  0.00     0.001 A 
HETATM   13  C   UNL     1      60.167   8.180   1.149  1.00  0.00     0.000 A 
HETATM   14  C   UNL     1      61.368   8.822   0.858  1.00  0.00     0.001 A 
HETATM   15  C   UNL     1      62.532   8.460   1.536  1.00  0.00     0.009 A 
ENDBRANCH   9  10
ENDBRANCH   1   9
BRANCH   2  16
HETATM   16  C   UNL     1      66.043   6.776   7.602  1.00  0.00     0.262 C 
BRANCH  16  17
HETATM   17  C   UNL     1      67.121   5.862   8.236  1.00  0.00     0.257 C 
BRANCH  17  18
HETATM   18  N   UNL     1      66.563   4.595   8.727  1.00  0.00    -0.078 N 
HETATM   19  H   UNL     1      67.079   3.815   8.320  1.00  0.00     0.274 HD
HETATM   20  H   UNL     1      65.581   4.529   8.461  1.00  0.00     0.274 HD
HETATM   21  H   UNL     1      66.642   4.560   9.745  1.00  0.00     0.274 HD
ENDBRANCH  17  18
ENDBRANCH  16  17
ENDBRANCH   2  16
TORSDOF 5
ENDMDL
