MODEL 1
REMARK VINA RESULT:      -4.9      0.000      0.000
REMARK  1 active torsions:
REMARK  status: ('A' for Active; 'I' for Inactive)
REMARK    1  A    between atoms: C_7  and  O_10 
ROOT
HETATM    1  N   UNL     1      61.737   8.620   0.523  1.00  0.00    -0.191 NA
HETATM    2  C   UNL     1      62.211   9.637   2.860  1.00  0.00     0.083 A 
HETATM    3  C   UNL     1      61.936   9.090   1.566  1.00  0.00     0.102 C 
HETATM    4  C   UNL     1      61.923  10.974   3.136  1.00  0.00     0.139 A 
HETATM    5  C   UNL     1      62.210  11.533   4.380  1.00  0.00     0.080 A 
HETATM    6  C   UNL     1      62.788   8.843   3.858  1.00  0.00     0.028 A 
HETATM    7  C   UNL     1      62.806  10.739   5.352  1.00  0.00     0.068 A 
HETATM    8  F   UNL     1      61.364  11.754   2.199  1.00  0.00    -0.204 F 
HETATM    9  C   UNL     1      63.089   9.400   5.104  1.00  0.00     0.038 A 
ENDROOT
BRANCH   7  10
HETATM   10  O   UNL     1      63.141  11.241   6.574  1.00  0.00    -0.361 OA
HETATM   11  H   UNL     1      63.859  10.872   7.051  1.00  0.00     0.217 HD
ENDBRANCH   7  10
TORSDOF 1
ENDMDL
MODEL 2
REMARK VINA RESULT:      -4.7      2.967      3.584
REMARK  1 active torsions:
REMARK  status: ('A' for Active; 'I' for Inactive)
REMARK    1  A    between atoms: C_7  and  O_10 
ROOT
HETATM    1  N   UNL     1      63.293   7.526   6.523  1.00  0.00    -0.191 NA
HETATM    2  C   UNL     1      62.639   9.244   4.695  1.00  0.00     0.083 A 
HETATM    3  C   UNL     1      63.008   8.310   5.715  1.00  0.00     0.102 C 
HETATM    4  C   UNL     1      62.506  10.600   4.995  1.00  0.00     0.139 A 
HETATM    5  C   UNL     1      62.119  11.521   4.022  1.00  0.00     0.080 A 
HETATM    6  C   UNL     1      62.390   8.807   3.389  1.00  0.00     0.028 A 
HETATM    7  C   UNL     1      61.851  11.067   2.737  1.00  0.00     0.068 A 
HETATM    8  F   UNL     1      62.745  11.046   6.237  1.00  0.00    -0.204 F 
HETATM    9  C   UNL     1      61.991   9.722   2.411  1.00  0.00     0.038 A 
ENDROOT
BRANCH   7  10
HETATM   10  O   UNL     1      61.437  11.916   1.755  1.00  0.00    -0.361 OA
HETATM   11  H   UNL     1      61.426  11.629   0.862  1.00  0.00     0.217 HD
ENDBRANCH   7  10
TORSDOF 1
ENDMDL
MODEL 3
REMARK VINA RESULT:      -4.6      3.124      3.829
REMARK  1 active torsions:
REMARK  status: ('A' for Active; 'I' for Inactive)
REMARK    1  A    between atoms: C_7  and  O_10 
ROOT
HETATM    1  N   UNL     1      63.118  11.164   6.325  1.00  0.00    -0.191 NA
HETATM    2  C   UNL     1      62.628  10.084   4.020  1.00  0.00     0.083 A 
HETATM    3  C   UNL     1      62.899  10.698   5.285  1.00  0.00     0.102 C 
HETATM    4  C   UNL     1      62.051  10.824   2.986  1.00  0.00     0.139 A 
HETATM    5  C   UNL     1      61.754  10.236   1.758  1.00  0.00     0.080 A 
HETATM    6  C   UNL     1      62.923   8.732   3.811  1.00  0.00     0.028 A 
HETATM    7  C   UNL     1      62.029   8.887   1.574  1.00  0.00     0.068 A 
HETATM    8  F   UNL     1      61.767  12.122   3.159  1.00  0.00    -0.204 F 
HETATM    9  C   UNL     1      62.617   8.134   2.585  1.00  0.00     0.038 A 
ENDROOT
BRANCH   7  10
HETATM   10  O   UNL     1      61.728   8.252   0.406  1.00  0.00    -0.361 OA
HETATM   11  H   UNL     1      61.394   7.376   0.423  1.00  0.00     0.217 HD
ENDBRANCH   7  10
TORSDOF 1
ENDMDL
MODEL 4
REMARK VINA RESULT:      -4.6      1.832      2.085
REMARK  1 active torsions:
REMARK  status: ('A' for Active; 'I' for Inactive)
REMARK    1  A    between atoms: C_7  and  O_10 
ROOT
HETATM    1  N   UNL     1      63.066   6.161   1.664  1.00  0.00    -0.191 NA
HETATM    2  C   UNL     1      62.587   8.500   2.674  1.00  0.00     0.083 A 
HETATM    3  C   UNL     1      62.839   7.212   2.101  1.00  0.00     0.102 C 
HETATM    4  C   UNL     1      62.106   9.542   1.880  1.00  0.00     0.139 A 
HETATM    5  C   UNL     1      61.881  10.810   2.413  1.00  0.00     0.080 A 
HETATM    6  C   UNL     1      62.835   8.733   4.031  1.00  0.00     0.028 A 
HETATM    7  C   UNL     1      62.157  11.033   3.756  1.00  0.00     0.068 A 
HETATM    8  F   UNL     1      61.853   9.342   0.578  1.00  0.00    -0.204 F 
HETATM    9  C   UNL     1      62.623  10.005   4.569  1.00  0.00     0.038 A 
ENDROOT
BRANCH   7  10
HETATM   10  O   UNL     1      61.989  12.261   4.323  1.00  0.00    -0.361 OA
HETATM   11  H   UNL     1      61.300  12.401   4.943  1.00  0.00     0.217 HD
ENDBRANCH   7  10
TORSDOF 1
ENDMDL
MODEL 5
REMARK VINA RESULT:      -4.6      1.519      2.145
REMARK  1 active torsions:
REMARK  status: ('A' for Active; 'I' for Inactive)
REMARK    1  A    between atoms: C_7  and  O_10 
ROOT
HETATM    1  N   UNL     1      61.157   8.558   0.723  1.00  0.00    -0.191 NA
HETATM    2  C   UNL     1      62.103   9.627   2.886  1.00  0.00     0.083 A 
HETATM    3  C   UNL     1      61.596   9.024   1.691  1.00  0.00     0.102 C 
HETATM    4  C   UNL     1      62.954   8.913   3.731  1.00  0.00     0.139 A 
HETATM    5  C   UNL     1      63.436   9.473   4.913  1.00  0.00     0.080 A 
HETATM    6  C   UNL     1      61.739  10.934   3.231  1.00  0.00     0.028 A 
HETATM    7  C   UNL     1      63.045  10.761   5.254  1.00  0.00     0.068 A 
HETATM    8  F   UNL     1      63.324   7.662   3.419  1.00  0.00    -0.204 F 
HETATM    9  C   UNL     1      62.209  11.498   4.420  1.00  0.00     0.038 A 
ENDROOT
BRANCH   7  10
HETATM   10  O   UNL     1      63.456  11.347   6.414  1.00  0.00    -0.361 OA
HETATM   11  H   UNL     1      62.883  11.931   6.872  1.00  0.00     0.217 HD
ENDBRANCH   7  10
TORSDOF 1
ENDMDL
MODEL 6
REMARK VINA RESULT:      -4.5      3.463      4.366
REMARK  1 active torsions:
REMARK  status: ('A' for Active; 'I' for Inactive)
REMARK    1  A    between atoms: C_7  and  O_10 
ROOT
HETATM    1  N   UNL     1      63.183  11.407   6.497  1.00  0.00    -0.191 NA
HETATM    2  C   UNL     1      62.623  10.341   4.201  1.00  0.00     0.083 A 
HETATM    3  C   UNL     1      62.933  10.912   5.477  1.00  0.00     0.102 C 
HETATM    4  C   UNL     1      62.963   9.017   3.919  1.00  0.00     0.139 A 
HETATM    5  C   UNL     1      62.695   8.453   2.673  1.00  0.00     0.080 A 
HETATM    6  C   UNL     1      61.990  11.108   3.217  1.00  0.00     0.028 A 
HETATM    7  C   UNL     1      62.089   9.235   1.698  1.00  0.00     0.068 A 
HETATM    8  F   UNL     1      63.564   8.259   4.848  1.00  0.00    -0.204 F 
HETATM    9  C   UNL     1      61.728  10.552   1.961  1.00  0.00     0.038 A 
ENDROOT
BRANCH   7  10
HETATM   10  O   UNL     1      61.834   8.747   0.451  1.00  0.00    -0.361 OA
HETATM   11  H   UNL     1      62.022   9.270  -0.304  1.00  0.00     0.217 HD
ENDBRANCH   7  10
TORSDOF 1
ENDMDL
MODEL 7
REMARK VINA RESULT:      -4.5      3.062      3.816
REMARK  1 active torsions:
REMARK  status: ('A' for Active; 'I' for Inactive)
REMARK    1  A    between atoms: C_7  and  O_10 
ROOT
HETATM    1  N   UNL     1      64.316   7.322   6.472  1.00  0.00    -0.191 NA
HETATM    2  C   UNL     1      63.143   8.942   4.822  1.00  0.00     0.083 A 
HETATM    3  C   UNL     1      63.784   8.032   5.723  1.00  0.00     0.102 C 
HETATM    4  C   UNL     1      62.808   8.535   3.530  1.00  0.00     0.139 A 
HETATM    5  C   UNL     1      62.209   9.415   2.629  1.00  0.00     0.080 A 
HETATM    6  C   UNL     1      62.861  10.253   5.220  1.00  0.00     0.028 A 
HETATM    7  C   UNL     1      61.959  10.721   3.030  1.00  0.00     0.068 A 
HETATM    8  F   UNL     1      63.060   7.282   3.126  1.00  0.00    -0.204 F 
HETATM    9  C   UNL     1      62.272  11.144   4.319  1.00  0.00     0.038 A 
ENDROOT
BRANCH   7  10
HETATM   10  O   UNL     1      61.409  11.633   2.182  1.00  0.00    -0.361 OA
HETATM   11  H   UNL     1      61.939  12.319   1.823  1.00  0.00     0.217 HD
ENDBRANCH   7  10
TORSDOF 1
ENDMDL
MODEL 8
REMARK VINA RESULT:      -4.4      2.091      2.701
REMARK  1 active torsions:
REMARK  status: ('A' for Active; 'I' for Inactive)
REMARK    1  A    between atoms: C_7  and  O_10 
ROOT
HETATM    1  N   UNL     1      61.983   6.373   0.962  1.00  0.00    -0.191 NA
HETATM    2  C   UNL     1      62.057   8.635   2.225  1.00  0.00     0.083 A 
HETATM    3  C   UNL     1      62.026   7.377   1.542  1.00  0.00     0.102 C 
HETATM    4  C   UNL     1      62.270   8.684   3.603  1.00  0.00     0.139 A 
HETATM    5  C   UNL     1      62.275   9.896   4.291  1.00  0.00     0.080 A 
HETATM    6  C   UNL     1      61.858   9.829   1.523  1.00  0.00     0.028 A 
HETATM    7  C   UNL     1      62.050  11.071   3.583  1.00  0.00     0.068 A 
HETATM    8  F   UNL     1      62.471   7.555   4.299  1.00  0.00    -0.204 F 
HETATM    9  C   UNL     1      61.850  11.047   2.206  1.00  0.00     0.038 A 
ENDROOT
BRANCH   7  10
HETATM   10  O   UNL     1      62.009  12.281   4.208  1.00  0.00    -0.361 OA
HETATM   11  H   UNL     1      61.201  12.598   4.563  1.00  0.00     0.217 HD
ENDBRANCH   7  10
TORSDOF 1
ENDMDL
MODEL 9
REMARK VINA RESULT:      -4.3      3.389      4.442
REMARK  1 active torsions:
REMARK  status: ('A' for Active; 'I' for Inactive)
REMARK    1  A    between atoms: C_7  and  O_10 
ROOT
HETATM    1  N   UNL     1      61.901  11.872   4.044  1.00  0.00    -0.191 NA
HETATM    2  C   UNL     1      62.241   9.678   2.706  1.00  0.00     0.083 A 
HETATM    3  C   UNL     1      62.055  10.879   3.462  1.00  0.00     0.102 C 
HETATM    4  C   UNL     1      62.853   8.566   3.288  1.00  0.00     0.139 A 
HETATM    5  C   UNL     1      63.069   7.397   2.560  1.00  0.00     0.080 A 
HETATM    6  C   UNL     1      61.829   9.608   1.371  1.00  0.00     0.028 A 
HETATM    7  C   UNL     1      62.677   7.353   1.228  1.00  0.00     0.068 A 
HETATM    8  F   UNL     1      63.250   8.604   4.568  1.00  0.00    -0.204 F 
HETATM    9  C   UNL     1      62.053   8.444   0.631  1.00  0.00     0.038 A 
ENDROOT
BRANCH   7  10
HETATM   10  O   UNL     1      62.895   6.250   0.459  1.00  0.00    -0.361 OA
HETATM   11  H   UNL     1      62.417   5.461   0.626  1.00  0.00     0.217 HD
ENDBRANCH   7  10
TORSDOF 1
ENDMDL
