MODEL 1
REMARK VINA RESULT:      -5.4      0.000      0.000
REMARK  3 active torsions:
REMARK  status: ('A' for Active; 'I' for Inactive)
REMARK    1  A    between atoms: N_1  and  C_7 
REMARK    2  A    between atoms: C_5  and  C_10 
REMARK    3  A    between atoms: C_10  and  O_16 
ROOT
HETATM    1  N   UNL     1      63.482   9.006   4.876  1.00  0.00    -0.261 N 
HETATM    2  N   UNL     1      63.086  10.092   5.590  1.00  0.00    -0.304 N 
ATOM      3  HN  UNL     1      63.243  10.275   6.582  1.00  0.00     0.186 HD
HETATM    4  C   UNL     1      62.935   9.025   3.599  1.00  0.00     0.040 C 
HETATM    5  C   UNL     1      62.305  10.255   3.458  1.00  0.00     0.006 C 
HETATM    6  C   UNL     1      62.451  10.865   4.715  1.00  0.00     0.119 C 
HETATM    7  C   UNL     1      62.937   7.890   2.636  1.00  0.00     0.071 C 
ENDROOT
BRANCH   1   8
HETATM    8  C   UNL     1      64.344   8.055   5.485  1.00  0.00     0.056 A 
HETATM    9  C   UNL     1      65.732   8.184   5.310  1.00  0.00     0.034 A 
HETATM   10  C   UNL     1      66.602   7.275   5.919  1.00  0.00     0.044 A 
HETATM   11  C   UNL     1      66.082   6.225   6.665  1.00  0.00     0.116 A 
HETATM   12  C   UNL     1      64.710   6.060   6.813  1.00  0.00     0.044 A 
HETATM   13  F   UNL     1      66.916   5.350   7.243  1.00  0.00    -0.206 F 
HETATM   14  C   UNL     1      63.834   6.979   6.225  1.00  0.00     0.034 A 
ENDBRANCH   1   8
BRANCH   5  15
HETATM   15  C   UNL     1      61.573  10.788   2.280  1.00  0.00     0.206 C 
BRANCH  15  16
HETATM   16  O   UNL     1      62.097  12.041   1.859  1.00  0.00    -0.396 OA
HETATM   17  H   UNL     1      62.733  11.900   1.140  1.00  0.00     0.209 HD
ENDBRANCH  15  16
ENDBRANCH   5  15
TORSDOF 3
ENDMDL
MODEL 2
REMARK VINA RESULT:      -5.4      3.701      5.874
REMARK  3 active torsions:
REMARK  status: ('A' for Active; 'I' for Inactive)
REMARK    1  A    between atoms: N_1  and  C_7 
REMARK    2  A    between atoms: C_5  and  C_10 
REMARK    3  A    between atoms: C_10  and  O_16 
ROOT
HETATM    1  N   UNL     1      62.979   8.040   5.020  1.00  0.00    -0.261 N 
HETATM    2  N   UNL     1      62.018   7.274   5.598  1.00  0.00    -0.304 N 
ATOM      3  HN  UNL     1      61.008   7.418   5.573  1.00  0.00     0.186 HD
HETATM    4  C   UNL     1      64.247   7.635   5.419  1.00  0.00     0.040 C 
HETATM    5  C   UNL     1      64.074   6.464   6.148  1.00  0.00     0.006 C 
HETATM    6  C   UNL     1      62.680   6.294   6.205  1.00  0.00     0.119 C 
HETATM    7  C   UNL     1      65.510   8.388   5.197  1.00  0.00     0.071 C 
ENDROOT
BRANCH   1   8
HETATM    8  C   UNL     1      62.592   9.089   4.142  1.00  0.00     0.056 A 
HETATM    9  C   UNL     1      62.390  10.376   4.665  1.00  0.00     0.034 A 
HETATM   10  C   UNL     1      62.034  11.429   3.817  1.00  0.00     0.044 A 
HETATM   11  C   UNL     1      61.844  11.183   2.463  1.00  0.00     0.116 A 
HETATM   12  C   UNL     1      62.000   9.905   1.938  1.00  0.00     0.044 A 
HETATM   13  F   UNL     1      61.495  12.190   1.652  1.00  0.00    -0.206 F 
HETATM   14  C   UNL     1      62.378   8.852   2.777  1.00  0.00     0.034 A 
ENDBRANCH   1   8
BRANCH   5  15
HETATM   15  C   UNL     1      65.110   5.617   6.792  1.00  0.00     0.206 C 
BRANCH  15  16
HETATM   16  O   UNL     1      65.653   6.239   7.949  1.00  0.00    -0.396 OA
HETATM   17  H   UNL     1      66.042   5.563   8.527  1.00  0.00     0.209 HD
ENDBRANCH  15  16
ENDBRANCH   5  15
TORSDOF 3
ENDMDL
MODEL 3
REMARK VINA RESULT:      -5.0      3.822      5.867
REMARK  3 active torsions:
REMARK  status: ('A' for Active; 'I' for Inactive)
REMARK    1  A    between atoms: N_1  and  C_7 
REMARK    2  A    between atoms: C_5  and  C_10 
REMARK    3  A    between atoms: C_10  and  O_16 
ROOT
HETATM    1  N   UNL     1      64.467   7.916   5.517  1.00  0.00    -0.261 N 
HETATM    2  N   UNL     1      65.792   8.188   5.653  1.00  0.00    -0.304 N 
ATOM      3  HN  UNL     1      66.323   8.934   5.202  1.00  0.00     0.186 HD
HETATM    4  C   UNL     1      64.138   6.721   6.143  1.00  0.00     0.040 C 
HETATM    5  C   UNL     1      65.272   6.313   6.835  1.00  0.00     0.006 C 
HETATM    6  C   UNL     1      66.244   7.271   6.501  1.00  0.00     0.119 C 
HETATM    7  C   UNL     1      62.854   5.984   5.988  1.00  0.00     0.071 C 
ENDROOT
BRANCH   1   8
HETATM    8  C   UNL     1      63.644   8.827   4.800  1.00  0.00     0.056 A 
HETATM    9  C   UNL     1      63.283  10.041   5.408  1.00  0.00     0.034 A 
HETATM   10  C   UNL     1      62.496  10.964   4.714  1.00  0.00     0.044 A 
HETATM   11  C   UNL     1      62.043  10.655   3.438  1.00  0.00     0.116 A 
HETATM   12  C   UNL     1      62.358   9.440   2.840  1.00  0.00     0.044 A 
HETATM   13  F   UNL     1      61.282  11.536   2.775  1.00  0.00    -0.206 F 
HETATM   14  C   UNL     1      63.164   8.521   3.520  1.00  0.00     0.034 A 
ENDBRANCH   1   8
BRANCH   5  15
HETATM   15  C   UNL     1      65.453   5.104   7.679  1.00  0.00     0.206 C 
BRANCH  15  16
HETATM   16  O   UNL     1      66.126   5.408   8.895  1.00  0.00    -0.396 OA
HETATM   17  H   UNL     1      66.938   4.880   8.955  1.00  0.00     0.209 HD
ENDBRANCH  15  16
ENDBRANCH   5  15
TORSDOF 3
ENDMDL
MODEL 4
REMARK VINA RESULT:      -4.9      3.890      5.923
REMARK  3 active torsions:
REMARK  status: ('A' for Active; 'I' for Inactive)
REMARK    1  A    between atoms: N_1  and  C_7 
REMARK    2  A    between atoms: C_5  and  C_10 
REMARK    3  A    between atoms: C_10  and  O_16 
ROOT
HETATM    1  N   UNL     1      64.970   7.519   5.682  1.00  0.00    -0.261 N 
HETATM    2  N   UNL     1      64.489   7.172   6.905  1.00  0.00    -0.304 N 
ATOM      3  HN  UNL     1      63.564   7.368   7.288  1.00  0.00     0.186 HD
HETATM    4  C   UNL     1      66.327   7.238   5.583  1.00  0.00     0.040 C 
HETATM    5  C   UNL     1      66.669   6.538   6.734  1.00  0.00     0.006 C 
HETATM    6  C   UNL     1      65.487   6.521   7.493  1.00  0.00     0.119 C 
HETATM    7  C   UNL     1      67.235   7.710   4.503  1.00  0.00     0.071 C 
ENDROOT
BRANCH   1   8
HETATM    8  C   UNL     1      64.084   8.086   4.726  1.00  0.00     0.056 A 
HETATM    9  C   UNL     1      63.453   9.305   5.022  1.00  0.00     0.034 A 
HETATM   10  C   UNL     1      62.597   9.895   4.088  1.00  0.00     0.044 A 
HETATM   11  C   UNL     1      62.347   9.249   2.885  1.00  0.00     0.116 A 
HETATM   12  C   UNL     1      62.932   8.022   2.594  1.00  0.00     0.044 A 
HETATM   13  F   UNL     1      61.521   9.811   1.992  1.00  0.00    -0.206 F 
HETATM   14  C   UNL     1      63.807   7.436   3.515  1.00  0.00     0.034 A 
ENDBRANCH   1   8
BRANCH   5  15
HETATM   15  C   UNL     1      67.995   5.993   7.122  1.00  0.00     0.206 C 
BRANCH  15  16
HETATM   16  O   UNL     1      67.957   5.382   8.405  1.00  0.00    -0.396 OA
HETATM   17  H   UNL     1      68.856   5.126   8.668  1.00  0.00     0.209 HD
ENDBRANCH  15  16
ENDBRANCH   5  15
TORSDOF 3
ENDMDL
MODEL 5
REMARK VINA RESULT:      -4.7      0.972      1.754
REMARK  3 active torsions:
REMARK  status: ('A' for Active; 'I' for Inactive)
REMARK    1  A    between atoms: N_1  and  C_7 
REMARK    2  A    between atoms: C_5  and  C_10 
REMARK    3  A    between atoms: C_10  and  O_16 
ROOT
HETATM    1  N   UNL     1      63.877   8.385   4.444  1.00  0.00    -0.261 N 
HETATM    2  N   UNL     1      63.756   7.713   3.269  1.00  0.00    -0.304 N 
ATOM      3  HN  UNL     1      64.282   6.893   2.965  1.00  0.00     0.186 HD
HETATM    4  C   UNL     1      63.123   9.551   4.430  1.00  0.00     0.040 C 
HETATM    5  C   UNL     1      62.373   9.521   3.260  1.00  0.00     0.006 C 
HETATM    6  C   UNL     1      62.802   8.356   2.604  1.00  0.00     0.119 C 
HETATM    7  C   UNL     1      63.209  10.653   5.426  1.00  0.00     0.071 C 
ENDROOT
BRANCH   1   8
HETATM    8  C   UNL     1      64.704   7.846   5.467  1.00  0.00     0.056 A 
HETATM    9  C   UNL     1      66.032   8.291   5.574  1.00  0.00     0.034 A 
HETATM   10  C   UNL     1      66.857   7.795   6.587  1.00  0.00     0.044 A 
HETATM   11  C   UNL     1      66.366   6.832   7.460  1.00  0.00     0.116 A 
HETATM   12  C   UNL     1      65.067   6.351   7.341  1.00  0.00     0.044 A 
HETATM   13  F   UNL     1      67.158   6.351   8.427  1.00  0.00    -0.206 F 
HETATM   14  C   UNL     1      64.228   6.860   6.343  1.00  0.00     0.034 A 
ENDBRANCH   1   8
BRANCH   5  15
HETATM   15  C   UNL     1      61.395  10.524   2.766  1.00  0.00     0.206 C 
BRANCH  15  16
HETATM   16  O   UNL     1      62.043  11.667   2.223  1.00  0.00    -0.396 OA
HETATM   17  H   UNL     1      61.391  12.219   1.760  1.00  0.00     0.209 HD
ENDBRANCH  15  16
ENDBRANCH   5  15
TORSDOF 3
ENDMDL
MODEL 6
REMARK VINA RESULT:      -4.7      3.878      5.912
REMARK  3 active torsions:
REMARK  status: ('A' for Active; 'I' for Inactive)
REMARK    1  A    between atoms: N_1  and  C_7 
REMARK    2  A    between atoms: C_5  and  C_10 
REMARK    3  A    between atoms: C_10  and  O_16 
ROOT
HETATM    1  N   UNL     1      63.924   7.394   4.887  1.00  0.00    -0.261 N 
HETATM    2  N   UNL     1      65.202   7.121   4.514  1.00  0.00    -0.304 N 
ATOM      3  HN  UNL     1      65.754   7.591   3.796  1.00  0.00     0.186 HD
HETATM    4  C   UNL     1      63.447   6.433   5.768  1.00  0.00     0.040 C 
HETATM    5  C   UNL     1      64.526   5.617   6.083  1.00  0.00     0.006 C 
HETATM    6  C   UNL     1      65.575   6.108   5.288  1.00  0.00     0.119 C 
HETATM    7  C   UNL     1      62.027   6.263   6.183  1.00  0.00     0.071 C 
ENDROOT
BRANCH   1   8
HETATM    8  C   UNL     1      63.283   8.550   4.363  1.00  0.00     0.056 A 
HETATM    9  C   UNL     1      62.833   8.535   3.033  1.00  0.00     0.034 A 
HETATM   10  C   UNL     1      62.178   9.650   2.502  1.00  0.00     0.044 A 
HETATM   11  C   UNL     1      62.010  10.783   3.288  1.00  0.00     0.116 A 
HETATM   12  C   UNL     1      62.486  10.827   4.594  1.00  0.00     0.044 A 
HETATM   13  F   UNL     1      61.387  11.854   2.778  1.00  0.00    -0.206 F 
HETATM   14  C   UNL     1      63.123   9.707   5.138  1.00  0.00     0.034 A 
ENDBRANCH   1   8
BRANCH   5  15
HETATM   15  C   UNL     1      64.561   4.442   6.992  1.00  0.00     0.206 C 
BRANCH  15  16
HETATM   16  O   UNL     1      65.578   4.571   7.978  1.00  0.00    -0.396 OA
HETATM   17  H   UNL     1      65.470   5.415   8.445  1.00  0.00     0.209 HD
ENDBRANCH  15  16
ENDBRANCH   5  15
TORSDOF 3
ENDMDL
MODEL 7
REMARK VINA RESULT:      -4.5      3.937      6.029
REMARK  3 active torsions:
REMARK  status: ('A' for Active; 'I' for Inactive)
REMARK    1  A    between atoms: N_1  and  C_7 
REMARK    2  A    between atoms: C_5  and  C_10 
REMARK    3  A    between atoms: C_10  and  O_16 
ROOT
HETATM    1  N   UNL     1      63.598   7.627   3.562  1.00  0.00    -0.261 N 
HETATM    2  N   UNL     1      64.352   6.510   3.385  1.00  0.00    -0.304 N 
ATOM      3  HN  UNL     1      64.149   5.712   2.783  1.00  0.00     0.186 HD
HETATM    4  C   UNL     1      64.105   8.411   4.591  1.00  0.00     0.040 C 
HETATM    5  C   UNL     1      65.317   7.841   4.960  1.00  0.00     0.006 C 
HETATM    6  C   UNL     1      65.412   6.685   4.167  1.00  0.00     0.119 C 
HETATM    7  C   UNL     1      63.409   9.561   5.230  1.00  0.00     0.071 C 
ENDROOT
BRANCH   1   8
HETATM    8  C   UNL     1      62.465   7.835   2.730  1.00  0.00     0.056 A 
HETATM    9  C   UNL     1      61.287   7.117   2.992  1.00  0.00     0.034 A 
HETATM   10  C   UNL     1      60.151   7.322   2.203  1.00  0.00     0.044 A 
HETATM   11  C   UNL     1      60.209   8.212   1.139  1.00  0.00     0.116 A 
HETATM   12  C   UNL     1      61.380   8.900   0.842  1.00  0.00     0.044 A 
HETATM   13  F   UNL     1      59.123   8.405   0.379  1.00  0.00    -0.206 F 
HETATM   14  C   UNL     1      62.514   8.716   1.641  1.00  0.00     0.034 A 
ENDBRANCH   1   8
BRANCH   5  15
HETATM   15  C   UNL     1      66.269   8.294   6.006  1.00  0.00     0.206 C 
BRANCH  15  16
HETATM   16  O   UNL     1      66.078   7.595   7.230  1.00  0.00    -0.396 OA
HETATM   17  H   UNL     1      65.951   8.233   7.950  1.00  0.00     0.209 HD
ENDBRANCH  15  16
ENDBRANCH   5  15
TORSDOF 3
ENDMDL
MODEL 8
REMARK VINA RESULT:      -4.4      3.844      5.671
REMARK  3 active torsions:
REMARK  status: ('A' for Active; 'I' for Inactive)
REMARK    1  A    between atoms: N_1  and  C_7 
REMARK    2  A    between atoms: C_5  and  C_10 
REMARK    3  A    between atoms: C_10  and  O_16 
ROOT
HETATM    1  N   UNL     1      63.263   8.398   3.800  1.00  0.00    -0.261 N 
HETATM    2  N   UNL     1      63.357   9.516   4.567  1.00  0.00    -0.304 N 
ATOM      3  HN  UNL     1      62.790  10.362   4.505  1.00  0.00     0.186 HD
HETATM    4  C   UNL     1      64.315   7.528   4.057  1.00  0.00     0.040 C 
HETATM    5  C   UNL     1      65.003   8.053   5.144  1.00  0.00     0.006 C 
HETATM    6  C   UNL     1      64.350   9.267   5.415  1.00  0.00     0.119 C 
HETATM    7  C   UNL     1      64.680   6.340   3.238  1.00  0.00     0.071 C 
ENDROOT
BRANCH   1   8
HETATM    8  C   UNL     1      62.174   8.270   2.895  1.00  0.00     0.056 A 
HETATM    9  C   UNL     1      62.331   8.719   1.573  1.00  0.00     0.034 A 
HETATM   10  C   UNL     1      61.284   8.581   0.658  1.00  0.00     0.044 A 
HETATM   11  C   UNL     1      60.078   8.033   1.076  1.00  0.00     0.116 A 
HETATM   12  C   UNL     1      59.893   7.623   2.391  1.00  0.00     0.044 A 
HETATM   13  F   UNL     1      59.072   7.908   0.200  1.00  0.00    -0.206 F 
HETATM   14  C   UNL     1      60.945   7.737   3.306  1.00  0.00     0.034 A 
ENDBRANCH   1   8
BRANCH   5  15
HETATM   15  C   UNL     1      66.204   7.506   5.827  1.00  0.00     0.206 C 
BRANCH  15  16
HETATM   16  O   UNL     1      66.973   8.533   6.441  1.00  0.00    -0.396 OA
HETATM   17  H   UNL     1      66.744   8.589   7.382  1.00  0.00     0.209 HD
ENDBRANCH  15  16
ENDBRANCH   5  15
TORSDOF 3
ENDMDL
MODEL 9
REMARK VINA RESULT:      -4.2     12.174     12.995
REMARK  3 active torsions:
REMARK  status: ('A' for Active; 'I' for Inactive)
REMARK    1  A    between atoms: N_1  and  C_7 
REMARK    2  A    between atoms: C_5  and  C_10 
REMARK    3  A    between atoms: C_10  and  O_16 
ROOT
HETATM    1  N   UNL     1      55.967   2.195  13.312  1.00  0.00    -0.261 N 
HETATM    2  N   UNL     1      55.574   2.809  14.458  1.00  0.00    -0.304 N 
ATOM      3  HN  UNL     1      55.985   2.712  15.388  1.00  0.00     0.186 HD
HETATM    4  C   UNL     1      55.062   2.432  12.285  1.00  0.00     0.040 C 
HETATM    5  C   UNL     1      54.154   3.365  12.769  1.00  0.00     0.006 C 
HETATM    6  C   UNL     1      54.539   3.563  14.106  1.00  0.00     0.119 C 
HETATM    7  C   UNL     1      55.027   1.723  10.977  1.00  0.00     0.071 C 
ENDROOT
BRANCH   1   8
HETATM    8  C   UNL     1      57.171   1.439  13.310  1.00  0.00     0.056 A 
HETATM    9  C   UNL     1      57.131   0.093  13.709  1.00  0.00     0.034 A 
HETATM   10  C   UNL     1      58.297  -0.677  13.692  1.00  0.00     0.044 A 
HETATM   11  C   UNL     1      59.499  -0.092  13.313  1.00  0.00     0.116 A 
HETATM   12  C   UNL     1      59.561   1.250  12.954  1.00  0.00     0.044 A 
HETATM   13  F   UNL     1      60.618  -0.828  13.303  1.00  0.00    -0.206 F 
HETATM   14  C   UNL     1      58.394   2.021  12.948  1.00  0.00     0.034 A 
ENDBRANCH   1   8
BRANCH   5  15
HETATM   15  C   UNL     1      52.990   3.969  12.070  1.00  0.00     0.206 C 
BRANCH  15  16
HETATM   16  O   UNL     1      53.400   4.856  11.037  1.00  0.00    -0.396 OA
HETATM   17  H   UNL     1      54.307   4.639  10.766  1.00  0.00     0.209 HD
ENDBRANCH  15  16
ENDBRANCH   5  15
TORSDOF 3
ENDMDL
