MODEL 1
REMARK VINA RESULT:      -4.0      0.000      0.000
REMARK  1 active torsions:
REMARK  status: ('A' for Active; 'I' for Inactive)
REMARK    1  A    between atoms: C_1  and  C_3 
ROOT
HETATM    1  C   UNL     1      62.490   9.634   4.357  1.00  0.00     0.104 A 
HETATM    2  C   UNL     1      61.853  10.154   3.236  1.00  0.00     0.029 A 
HETATM    3  N   UNL     1      61.134   9.221   2.491  1.00  0.00    -0.362 N 
ATOM      4  HN  UNL     1      60.611   9.430   1.641  1.00  0.00     0.165 HD
HETATM    5  S   UNL     1      62.166   7.942   4.463  1.00  0.00    -0.076 SA
HETATM    6  C   UNL     1      61.229   8.034   3.041  1.00  0.00     0.139 A 
HETATM    7  C   UNL     1      61.826  11.551   2.720  1.00  0.00     0.070 C 
ENDROOT
BRANCH   1   8
HETATM    8  C   UNL     1      63.319  10.228   5.374  1.00  0.00     0.218 C 
HETATM    9  O   UNL     1      63.081  11.198   6.080  1.00  0.00    -0.643 OA
HETATM   10  O   UNL     1      64.502   9.593   5.525  1.00  0.00    -0.643 OA
ENDBRANCH   1   8
TORSDOF 1
ENDMDL
MODEL 2
REMARK VINA RESULT:      -4.0      2.229      2.740
REMARK  1 active torsions:
REMARK  status: ('A' for Active; 'I' for Inactive)
REMARK    1  A    between atoms: C_1  and  C_3 
ROOT
HETATM    1  C   UNL     1      62.313   9.896   3.147  1.00  0.00     0.104 A 
HETATM    2  C   UNL     1      62.331   8.873   2.205  1.00  0.00     0.029 A 
HETATM    3  N   UNL     1      62.744   7.637   2.697  1.00  0.00    -0.362 N 
ATOM      4  HN  UNL     1      62.817   6.783   2.145  1.00  0.00     0.165 HD
HETATM    5  S   UNL     1      62.824   9.273   4.674  1.00  0.00    -0.076 SA
HETATM    6  C   UNL     1      63.026   7.731   3.974  1.00  0.00     0.139 A 
HETATM    7  C   UNL     1      61.975   8.907   0.759  1.00  0.00     0.070 C 
ENDROOT
BRANCH   1   8
HETATM    8  C   UNL     1      61.966  11.291   3.069  1.00  0.00     0.218 C 
HETATM    9  O   UNL     1      61.843  11.991   2.074  1.00  0.00    -0.643 OA
HETATM   10  O   UNL     1      61.762  11.851   4.281  1.00  0.00    -0.643 OA
ENDBRANCH   1   8
TORSDOF 1
ENDMDL
MODEL 3
REMARK VINA RESULT:      -3.9      2.351      2.974
REMARK  1 active torsions:
REMARK  status: ('A' for Active; 'I' for Inactive)
REMARK    1  A    between atoms: C_1  and  C_3 
ROOT
HETATM    1  C   UNL     1      62.274   9.811   2.829  1.00  0.00     0.104 A 
HETATM    2  C   UNL     1      62.988   8.837   3.518  1.00  0.00     0.029 A 
HETATM    3  N   UNL     1      63.069   7.606   2.868  1.00  0.00    -0.362 N 
ATOM      4  HN  UNL     1      63.552   6.785   3.231  1.00  0.00     0.165 HD
HETATM    5  S   UNL     1      61.706   9.152   1.337  1.00  0.00    -0.076 SA
HETATM    6  C   UNL     1      62.436   7.659   1.721  1.00  0.00     0.139 A 
HETATM    7  C   UNL     1      63.672   8.916   4.838  1.00  0.00     0.070 C 
ENDROOT
BRANCH   1   8
HETATM    8  C   UNL     1      61.949  11.181   3.128  1.00  0.00     0.218 C 
HETATM    9  O   UNL     1      61.717  11.688   4.217  1.00  0.00    -0.643 OA
HETATM   10  O   UNL     1      61.906  11.964   2.029  1.00  0.00    -0.643 OA
ENDBRANCH   1   8
TORSDOF 1
ENDMDL
MODEL 4
REMARK VINA RESULT:      -3.8      1.859      2.633
REMARK  1 active torsions:
REMARK  status: ('A' for Active; 'I' for Inactive)
REMARK    1  A    between atoms: C_1  and  C_3 
ROOT
HETATM    1  C   UNL     1      62.893   9.698   4.390  1.00  0.00     0.104 A 
HETATM    2  C   UNL     1      63.829   8.671   4.416  1.00  0.00     0.029 A 
HETATM    3  N   UNL     1      63.618   7.669   3.470  1.00  0.00    -0.362 N 
ATOM      4  HN  UNL     1      64.206   6.844   3.352  1.00  0.00     0.165 HD
HETATM    5  S   UNL     1      61.737   9.385   3.146  1.00  0.00    -0.076 SA
HETATM    6  C   UNL     1      62.554   7.940   2.754  1.00  0.00     0.139 A 
HETATM    7  C   UNL     1      65.013   8.487   5.300  1.00  0.00     0.070 C 
ENDROOT
BRANCH   1   8
HETATM    8  C   UNL     1      62.733  10.896   5.173  1.00  0.00     0.218 C 
HETATM    9  O   UNL     1      63.158  11.135   6.295  1.00  0.00    -0.643 OA
HETATM   10  O   UNL     1      62.012  11.846   4.540  1.00  0.00    -0.643 OA
ENDBRANCH   1   8
TORSDOF 1
ENDMDL
MODEL 5
REMARK VINA RESULT:      -3.8      1.772      1.993
REMARK  1 active torsions:
REMARK  status: ('A' for Active; 'I' for Inactive)
REMARK    1  A    between atoms: C_1  and  C_3 
ROOT
HETATM    1  C   UNL     1      63.286   8.965   4.326  1.00  0.00     0.104 A 
HETATM    2  C   UNL     1      62.497  10.110   4.300  1.00  0.00     0.029 A 
HETATM    3  N   UNL     1      61.536  10.131   3.290  1.00  0.00    -0.362 N 
ATOM      4  HN  UNL     1      60.877  10.891   3.126  1.00  0.00     0.165 HD
HETATM    5  S   UNL     1      62.795   7.906   3.054  1.00  0.00    -0.076 SA
HETATM    6  C   UNL     1      61.603   9.030   2.581  1.00  0.00     0.139 A 
HETATM    7  C   UNL     1      62.529  11.306   5.186  1.00  0.00     0.070 C 
ENDROOT
BRANCH   1   8
HETATM    8  C   UNL     1      64.370   8.544   5.175  1.00  0.00     0.218 C 
HETATM    9  O   UNL     1      65.567   8.760   5.045  1.00  0.00    -0.643 OA
HETATM   10  O   UNL     1      63.956   7.818   6.236  1.00  0.00    -0.643 OA
ENDBRANCH   1   8
TORSDOF 1
ENDMDL
MODEL 6
REMARK VINA RESULT:      -3.6      1.768      2.453
REMARK  1 active torsions:
REMARK  status: ('A' for Active; 'I' for Inactive)
REMARK    1  A    between atoms: C_1  and  C_3 
ROOT
HETATM    1  C   UNL     1      62.899   9.136   4.023  1.00  0.00     0.104 A 
HETATM    2  C   UNL     1      62.976   8.300   2.915  1.00  0.00     0.029 A 
HETATM    3  N   UNL     1      62.361   8.798   1.767  1.00  0.00    -0.362 N 
ATOM      4  HN  UNL     1      62.322   8.316   0.870  1.00  0.00     0.165 HD
HETATM    5  S   UNL     1      62.039  10.571   3.596  1.00  0.00    -0.076 SA
HETATM    6  C   UNL     1      61.840   9.977   2.010  1.00  0.00     0.139 A 
HETATM    7  C   UNL     1      63.614   6.962   2.777  1.00  0.00     0.070 C 
ENDROOT
BRANCH   1   8
HETATM    8  C   UNL     1      63.381   9.016   5.375  1.00  0.00     0.218 C 
HETATM    9  O   UNL     1      62.894   8.387   6.303  1.00  0.00    -0.643 OA
HETATM   10  O   UNL     1      64.520   9.708   5.591  1.00  0.00    -0.643 OA
ENDBRANCH   1   8
TORSDOF 1
ENDMDL
MODEL 7
REMARK VINA RESULT:      -3.5      6.184      7.077
REMARK  1 active torsions:
REMARK  status: ('A' for Active; 'I' for Inactive)
REMARK    1  A    between atoms: C_1  and  C_3 
ROOT
HETATM    1  C   UNL     1      66.777   6.541   7.313  1.00  0.00     0.104 A 
HETATM    2  C   UNL     1      67.359   5.434   6.707  1.00  0.00     0.029 A 
HETATM    3  N   UNL     1      68.075   4.607   7.571  1.00  0.00    -0.362 N 
ATOM      4  HN  UNL     1      68.564   3.756   7.294  1.00  0.00     0.165 HD
HETATM    5  S   UNL     1      67.143   6.525   9.000  1.00  0.00    -0.076 SA
HETATM    6  C   UNL     1      68.028   5.082   8.792  1.00  0.00     0.139 A 
HETATM    7  C   UNL     1      67.329   5.005   5.281  1.00  0.00     0.070 C 
ENDROOT
BRANCH   1   8
HETATM    8  C   UNL     1      65.977   7.626   6.806  1.00  0.00     0.218 C 
HETATM    9  O   UNL     1      66.327   8.764   6.527  1.00  0.00    -0.643 OA
HETATM   10  O   UNL     1      64.680   7.290   6.638  1.00  0.00    -0.643 OA
ENDBRANCH   1   8
TORSDOF 1
ENDMDL
MODEL 8
REMARK VINA RESULT:      -3.4      5.928      6.852
REMARK  1 active torsions:
REMARK  status: ('A' for Active; 'I' for Inactive)
REMARK    1  A    between atoms: C_1  and  C_3 
ROOT
HETATM    1  C   UNL     1      67.127   6.629   6.382  1.00  0.00     0.104 A 
HETATM    2  C   UNL     1      67.241   6.039   7.636  1.00  0.00     0.029 A 
HETATM    3  N   UNL     1      67.482   4.667   7.613  1.00  0.00    -0.362 N 
ATOM      4  HN  UNL     1      67.591   4.079   8.440  1.00  0.00     0.165 HD
HETATM    5  S   UNL     1      67.334   5.422   5.164  1.00  0.00    -0.076 SA
HETATM    6  C   UNL     1      67.550   4.240   6.375  1.00  0.00     0.139 A 
HETATM    7  C   UNL     1      67.143   6.656   8.988  1.00  0.00     0.070 C 
ENDROOT
BRANCH   1   8
HETATM    8  C   UNL     1      66.881   7.982   5.956  1.00  0.00     0.218 C 
HETATM    9  O   UNL     1      66.166   8.826   6.477  1.00  0.00    -0.643 OA
HETATM   10  O   UNL     1      67.548   8.308   4.828  1.00  0.00    -0.643 OA
ENDBRANCH   1   8
TORSDOF 1
ENDMDL
MODEL 9
REMARK VINA RESULT:      -3.4      5.381      6.363
REMARK  1 active torsions:
REMARK  status: ('A' for Active; 'I' for Inactive)
REMARK    1  A    between atoms: C_1  and  C_3 
ROOT
HETATM    1  C   UNL     1      65.929   6.519   6.840  1.00  0.00     0.104 A 
HETATM    2  C   UNL     1      66.253   5.974   8.077  1.00  0.00     0.029 A 
HETATM    3  N   UNL     1      65.882   4.640   8.240  1.00  0.00    -0.362 N 
ATOM      4  HN  UNL     1      66.041   4.088   9.083  1.00  0.00     0.165 HD
HETATM    5  S   UNL     1      65.150   5.317   5.875  1.00  0.00    -0.076 SA
HETATM    6  C   UNL     1      65.299   4.197   7.153  1.00  0.00     0.139 A 
HETATM    7  C   UNL     1      66.932   6.602   9.244  1.00  0.00     0.070 C 
ENDROOT
BRANCH   1   8
HETATM    8  C   UNL     1      66.119   7.826   6.267  1.00  0.00     0.218 C 
HETATM    9  O   UNL     1      67.168   8.381   5.969  1.00  0.00    -0.643 OA
HETATM   10  O   UNL     1      64.958   8.480   6.051  1.00  0.00    -0.643 OA
ENDBRANCH   1   8
TORSDOF 1
ENDMDL
