MODEL 1
REMARK VINA RESULT:      -5.5      0.000      0.000
REMARK  2 active torsions:
REMARK  status: ('A' for Active; 'I' for Inactive)
REMARK    1  A    between atoms: C_2  and  C_3 
REMARK    2  A    between atoms: C_3  and  O_8 
ROOT
HETATM    1  N   UNL     1      63.184   9.430   5.525  1.00  0.00    -0.376 N 
HETATM    2  C   UNL     1      63.303   7.948   5.407  1.00  0.00     0.186 C 
HETATM    3  C   UNL     1      62.631   9.816   4.288  1.00  0.00     0.035 A 
HETATM    4  C   UNL     1      63.391   7.619   3.899  1.00  0.00     0.076 C 
HETATM    5  C   UNL     1      62.760   8.835   3.307  1.00  0.00    -0.029 A 
HETATM    6  C   UNL     1      62.140  11.070   3.978  1.00  0.00     0.029 A 
HETATM    7  C   UNL     1      62.375   9.069   1.997  1.00  0.00     0.009 A 
HETATM    8  C   UNL     1      61.739  11.320   2.663  1.00  0.00     0.002 A 
HETATM    9  C   UNL     1      61.855  10.325   1.679  1.00  0.00     0.001 A 
HETATM   10  H   UNL     1      63.432  10.002   6.287  1.00  0.00     0.160 HD
ENDROOT
BRANCH   2  11
HETATM   11  C   UNL     1      64.507   7.398   6.175  1.00  0.00     0.281 C 
HETATM   12  O   UNL     1      64.460   6.967   7.322  1.00  0.00    -0.263 OA
BRANCH  11  13
HETATM   13  O   UNL     1      65.656   7.537   5.448  1.00  0.00    -0.325 OA
HETATM   14  C   UNL     1      66.768   8.036   6.189  1.00  0.00     0.213 C 
ENDBRANCH  11  13
ENDBRANCH   2  11
TORSDOF 2
ENDMDL
MODEL 2
REMARK VINA RESULT:      -5.4      0.829      1.218
REMARK  2 active torsions:
REMARK  status: ('A' for Active; 'I' for Inactive)
REMARK    1  A    between atoms: C_2  and  C_3 
REMARK    2  A    between atoms: C_3  and  O_8 
ROOT
HETATM    1  N   UNL     1      63.537   9.227   5.657  1.00  0.00    -0.376 N 
HETATM    2  C   UNL     1      63.730   7.760   5.475  1.00  0.00     0.186 C 
HETATM    3  C   UNL     1      62.871   9.621   4.480  1.00  0.00     0.035 A 
HETATM    4  C   UNL     1      63.722   7.487   3.954  1.00  0.00     0.076 C 
HETATM    5  C   UNL     1      62.980   8.682   3.456  1.00  0.00    -0.029 A 
HETATM    6  C   UNL     1      62.287  10.853   4.254  1.00  0.00     0.029 A 
HETATM    7  C   UNL     1      62.484   8.936   2.188  1.00  0.00     0.009 A 
HETATM    8  C   UNL     1      61.774  11.122   2.983  1.00  0.00     0.002 A 
HETATM    9  C   UNL     1      61.871  10.169   1.957  1.00  0.00     0.001 A 
HETATM   10  H   UNL     1      63.809   9.786   6.420  1.00  0.00     0.160 HD
ENDROOT
BRANCH   2  11
HETATM   11  C   UNL     1      65.018   7.256   6.131  1.00  0.00     0.281 C 
HETATM   12  O   UNL     1      66.052   7.003   5.524  1.00  0.00    -0.263 OA
BRANCH  11  13
HETATM   13  O   UNL     1      64.833   7.036   7.468  1.00  0.00    -0.325 OA
HETATM   14  C   UNL     1      65.943   6.430   8.127  1.00  0.00     0.213 C 
ENDBRANCH  11  13
ENDBRANCH   2  11
TORSDOF 2
ENDMDL
MODEL 3
REMARK VINA RESULT:      -4.9      1.202      1.920
REMARK  2 active torsions:
REMARK  status: ('A' for Active; 'I' for Inactive)
REMARK    1  A    between atoms: C_2  and  C_3 
REMARK    2  A    between atoms: C_3  and  O_8 
ROOT
HETATM    1  N   UNL     1      63.725   7.280   3.751  1.00  0.00    -0.376 N 
HETATM    2  C   UNL     1      64.246   8.105   4.879  1.00  0.00     0.186 C 
HETATM    3  C   UNL     1      63.055   8.216   2.940  1.00  0.00     0.035 A 
HETATM    4  C   UNL     1      63.339   9.352   4.986  1.00  0.00     0.076 C 
HETATM    5  C   UNL     1      62.769   9.406   3.607  1.00  0.00    -0.029 A 
HETATM    6  C   UNL     1      62.572   7.984   1.666  1.00  0.00     0.029 A 
HETATM    7  C   UNL     1      62.020  10.406   3.011  1.00  0.00     0.009 A 
HETATM    8  C   UNL     1      61.822   8.987   1.046  1.00  0.00     0.002 A 
HETATM    9  C   UNL     1      61.549  10.191   1.715  1.00  0.00     0.001 A 
HETATM   10  H   UNL     1      63.826   6.312   3.608  1.00  0.00     0.160 HD
ENDROOT
BRANCH   2  11
HETATM   11  C   UNL     1      64.292   7.327   6.196  1.00  0.00     0.281 C 
HETATM   12  O   UNL     1      63.372   7.275   7.003  1.00  0.00    -0.263 OA
BRANCH  11  13
HETATM   13  O   UNL     1      65.529   6.778   6.397  1.00  0.00    -0.325 OA
HETATM   14  C   UNL     1      66.555   7.724   6.690  1.00  0.00     0.213 C 
ENDBRANCH  11  13
ENDBRANCH   2  11
TORSDOF 2
ENDMDL
MODEL 4
REMARK VINA RESULT:      -4.1      2.640      3.515
REMARK  2 active torsions:
REMARK  status: ('A' for Active; 'I' for Inactive)
REMARK    1  A    between atoms: C_2  and  C_3 
REMARK    2  A    between atoms: C_3  and  O_8 
ROOT
HETATM    1  N   UNL     1      63.028   7.694   3.506  1.00  0.00    -0.376 N 
HETATM    2  C   UNL     1      62.568   7.106   2.215  1.00  0.00     0.186 C 
HETATM    3  C   UNL     1      62.560   9.021   3.449  1.00  0.00     0.035 A 
HETATM    4  C   UNL     1      62.399   8.276   1.219  1.00  0.00     0.076 C 
HETATM    5  C   UNL     1      62.226   9.424   2.157  1.00  0.00    -0.029 A 
HETATM    6  C   UNL     1      62.554   9.923   4.496  1.00  0.00     0.029 A 
HETATM    7  C   UNL     1      61.849  10.727   1.882  1.00  0.00     0.009 A 
HETATM    8  C   UNL     1      62.168  11.240   4.238  1.00  0.00     0.002 A 
HETATM    9  C   UNL     1      61.817  11.639   2.938  1.00  0.00     0.001 A 
HETATM   10  H   UNL     1      63.536   7.257   4.226  1.00  0.00     0.160 HD
ENDROOT
BRANCH   2  11
HETATM   11  C   UNL     1      63.535   6.047   1.680  1.00  0.00     0.281 C 
HETATM   12  O   UNL     1      63.595   5.690   0.510  1.00  0.00    -0.263 OA
BRANCH  11  13
HETATM   13  O   UNL     1      64.257   5.486   2.697  1.00  0.00    -0.325 OA
HETATM   14  C   UNL     1      64.539   4.098   2.527  1.00  0.00     0.213 C 
ENDBRANCH  11  13
ENDBRANCH   2  11
TORSDOF 2
ENDMDL
MODEL 5
REMARK VINA RESULT:      -4.1      1.791      2.466
REMARK  2 active torsions:
REMARK  status: ('A' for Active; 'I' for Inactive)
REMARK    1  A    between atoms: C_2  and  C_3 
REMARK    2  A    between atoms: C_3  and  O_8 
ROOT
HETATM    1  N   UNL     1      64.244   7.553   6.672  1.00  0.00    -0.376 N 
HETATM    2  C   UNL     1      64.385   6.072   6.566  1.00  0.00     0.186 C 
HETATM    3  C   UNL     1      63.668   7.919   5.439  1.00  0.00     0.035 A 
HETATM    4  C   UNL     1      64.457   5.730   5.061  1.00  0.00     0.076 C 
HETATM    5  C   UNL     1      63.799   6.930   4.466  1.00  0.00    -0.029 A 
HETATM    6  C   UNL     1      63.154   9.162   5.124  1.00  0.00     0.029 A 
HETATM    7  C   UNL     1      63.392   7.145   3.159  1.00  0.00     0.009 A 
HETATM    8  C   UNL     1      62.730   9.392   3.813  1.00  0.00     0.002 A 
HETATM    9  C   UNL     1      62.849   8.390   2.837  1.00  0.00     0.001 A 
HETATM   10  H   UNL     1      64.493   8.136   7.425  1.00  0.00     0.160 HD
ENDROOT
BRANCH   2  11
HETATM   11  C   UNL     1      65.607   5.548   7.323  1.00  0.00     0.281 C 
HETATM   12  O   UNL     1      65.645   4.483   7.927  1.00  0.00    -0.263 OA
BRANCH  11  13
HETATM   13  O   UNL     1      66.620   6.468   7.314  1.00  0.00    -0.325 OA
HETATM   14  C   UNL     1      67.812   6.029   6.667  1.00  0.00     0.213 C 
ENDBRANCH  11  13
ENDBRANCH   2  11
TORSDOF 2
ENDMDL
MODEL 6
REMARK VINA RESULT:      -4.0      2.941      4.368
REMARK  2 active torsions:
REMARK  status: ('A' for Active; 'I' for Inactive)
REMARK    1  A    between atoms: C_2  and  C_3 
REMARK    2  A    between atoms: C_3  and  O_8 
ROOT
HETATM    1  N   UNL     1      64.898   5.631   7.229  1.00  0.00    -0.376 N 
HETATM    2  C   UNL     1      66.381   5.779   7.185  1.00  0.00     0.186 C 
HETATM    3  C   UNL     1      64.442   6.600   6.314  1.00  0.00     0.035 A 
HETATM    4  C   UNL     1      66.679   7.223   6.721  1.00  0.00     0.076 C 
HETATM    5  C   UNL     1      65.406   7.563   6.019  1.00  0.00    -0.029 A 
HETATM    6  C   UNL     1      63.149   6.725   5.844  1.00  0.00     0.029 A 
HETATM    7  C   UNL     1      65.113   8.658   5.224  1.00  0.00     0.009 A 
HETATM    8  C   UNL     1      62.839   7.819   5.033  1.00  0.00     0.002 A 
HETATM    9  C   UNL     1      63.815   8.780   4.725  1.00  0.00     0.001 A 
HETATM   10  H   UNL     1      64.365   5.004   7.768  1.00  0.00     0.160 HD
ENDROOT
BRANCH   2  11
HETATM   11  C   UNL     1      67.037   5.474   8.534  1.00  0.00     0.281 C 
HETATM   12  O   UNL     1      67.685   6.283   9.189  1.00  0.00    -0.263 OA
BRANCH  11  13
HETATM   13  O   UNL     1      66.884   4.156   8.866  1.00  0.00    -0.325 OA
HETATM   14  C   UNL     1      67.622   3.251   8.048  1.00  0.00     0.213 C 
ENDBRANCH  11  13
ENDBRANCH   2  11
TORSDOF 2
ENDMDL
MODEL 7
REMARK VINA RESULT:      -4.0      2.235      5.276
REMARK  2 active torsions:
REMARK  status: ('A' for Active; 'I' for Inactive)
REMARK    1  A    between atoms: C_2  and  C_3 
REMARK    2  A    between atoms: C_3  and  O_8 
ROOT
HETATM    1  N   UNL     1      63.750   7.417   6.479  1.00  0.00    -0.376 N 
HETATM    2  C   UNL     1      63.712   8.492   5.447  1.00  0.00     0.186 C 
HETATM    3  C   UNL     1      65.118   7.095   6.570  1.00  0.00     0.035 A 
HETATM    4  C   UNL     1      64.962   8.310   4.557  1.00  0.00     0.076 C 
HETATM    5  C   UNL     1      65.855   7.544   5.476  1.00  0.00    -0.029 A 
HETATM    6  C   UNL     1      65.699   6.294   7.535  1.00  0.00     0.029 A 
HETATM    7  C   UNL     1      67.196   7.231   5.330  1.00  0.00     0.009 A 
HETATM    8  C   UNL     1      67.053   5.977   7.409  1.00  0.00     0.002 A 
HETATM    9  C   UNL     1      67.797   6.442   6.313  1.00  0.00     0.001 A 
HETATM   10  H   UNL     1      62.998   7.026   6.979  1.00  0.00     0.160 HD
ENDROOT
BRANCH   2  11
HETATM   11  C   UNL     1      62.423   8.461   4.621  1.00  0.00     0.281 C 
HETATM   12  O   UNL     1      61.825   7.439   4.307  1.00  0.00    -0.263 OA
BRANCH  11  13
HETATM   13  O   UNL     1      62.081   9.717   4.202  1.00  0.00    -0.325 OA
HETATM   14  C   UNL     1      61.995   9.865   2.786  1.00  0.00     0.213 C 
ENDBRANCH  11  13
ENDBRANCH   2  11
TORSDOF 2
ENDMDL
MODEL 8
REMARK VINA RESULT:      -3.9      2.201      2.878
REMARK  2 active torsions:
REMARK  status: ('A' for Active; 'I' for Inactive)
REMARK    1  A    between atoms: C_2  and  C_3 
REMARK    2  A    between atoms: C_3  and  O_8 
ROOT
HETATM    1  N   UNL     1      64.398   7.898   4.670  1.00  0.00    -0.376 N 
HETATM    2  C   UNL     1      63.937   6.826   3.742  1.00  0.00     0.186 C 
HETATM    3  C   UNL     1      63.502   8.956   4.422  1.00  0.00     0.035 A 
HETATM    4  C   UNL     1      63.196   7.521   2.578  1.00  0.00     0.076 C 
HETATM    5  C   UNL     1      62.817   8.816   3.217  1.00  0.00    -0.029 A 
HETATM    6  C   UNL     1      63.381  10.108   5.176  1.00  0.00     0.029 A 
HETATM    7  C   UNL     1      61.972   9.807   2.747  1.00  0.00     0.009 A 
HETATM    8  C   UNL     1      62.526  11.114   4.721  1.00  0.00     0.002 A 
HETATM    9  C   UNL     1      61.825  10.964   3.514  1.00  0.00     0.001 A 
HETATM   10  H   UNL     1      65.149   7.872   5.305  1.00  0.00     0.160 HD
ENDROOT
BRANCH   2  11
HETATM   11  C   UNL     1      65.092   5.958   3.236  1.00  0.00     0.281 C 
HETATM   12  O   UNL     1      66.261   6.092   3.577  1.00  0.00    -0.263 OA
BRANCH  11  13
HETATM   13  O   UNL     1      64.660   5.076   2.284  1.00  0.00    -0.325 OA
HETATM   14  C   UNL     1      65.687   4.258   1.726  1.00  0.00     0.213 C 
ENDBRANCH  11  13
ENDBRANCH   2  11
TORSDOF 2
ENDMDL
MODEL 9
REMARK VINA RESULT:      -3.9      5.211      6.651
REMARK  2 active torsions:
REMARK  status: ('A' for Active; 'I' for Inactive)
REMARK    1  A    between atoms: C_2  and  C_3 
REMARK    2  A    between atoms: C_3  and  O_8 
ROOT
HETATM    1  N   UNL     1      66.018   4.317   8.014  1.00  0.00    -0.376 N 
HETATM    2  C   UNL     1      66.599   3.172   7.256  1.00  0.00     0.186 C 
HETATM    3  C   UNL     1      66.253   5.422   7.174  1.00  0.00     0.035 A 
HETATM    4  C   UNL     1      67.676   3.753   6.312  1.00  0.00     0.076 C 
HETATM    5  C   UNL     1      67.224   5.171   6.206  1.00  0.00    -0.029 A 
HETATM    6  C   UNL     1      65.722   6.688   7.335  1.00  0.00     0.029 A 
HETATM    7  C   UNL     1      67.670   6.169   5.356  1.00  0.00     0.009 A 
HETATM    8  C   UNL     1      66.154   7.704   6.478  1.00  0.00     0.002 A 
HETATM    9  C   UNL     1      67.122   7.445   5.495  1.00  0.00     0.001 A 
HETATM   10  H   UNL     1      65.576   4.302   8.893  1.00  0.00     0.160 HD
ENDROOT
BRANCH   2  11
HETATM   11  C   UNL     1      67.179   2.097   8.178  1.00  0.00     0.281 C 
HETATM   12  O   UNL     1      67.385   0.935   7.846  1.00  0.00    -0.263 OA
BRANCH  11  13
HETATM   13  O   UNL     1      67.349   2.579   9.447  1.00  0.00    -0.325 OA
HETATM   14  C   UNL     1      67.961   1.663  10.351  1.00  0.00     0.213 C 
ENDBRANCH  11  13
ENDBRANCH   2  11
TORSDOF 2
ENDMDL
