MODEL 1
REMARK VINA RESULT:      -5.1      0.000      0.000
REMARK  1 active torsions:
REMARK  status: ('A' for Active; 'I' for Inactive)
REMARK    1  A    between atoms: C_3  and  N_7 
ROOT
HETATM    1  N   UNL     1      62.896  10.720   5.842  1.00  0.00    -0.244 N 
ATOM      2  HN  UNL     1      63.077  11.023   6.799  1.00  0.00     0.196 HD
HETATM    3  C   UNL     1      63.141   9.516   5.319  1.00  0.00     0.132 A 
HETATM    4  C   UNL     1      62.758   9.451   3.954  1.00  0.00     0.045 A 
HETATM    5  O   UNL     1      62.346  11.474   4.817  1.00  0.00    -0.235 OA
HETATM    6  C   UNL     1      62.264  10.717   3.692  1.00  0.00     0.112 A 
HETATM    7  C   UNL     1      62.764   8.500   2.918  1.00  0.00     0.018 A 
HETATM    8  C   UNL     1      61.767  11.126   2.457  1.00  0.00     0.040 A 
HETATM    9  C   UNL     1      62.270   8.878   1.661  1.00  0.00     0.001 A 
HETATM   10  C   UNL     1      61.782  10.168   1.436  1.00  0.00     0.003 A 
ENDROOT
BRANCH   3  11
HETATM   11  N   UNL     1      63.684   8.491   5.994  1.00  0.00    -0.383 N 
HETATM   12  H   UNL     1      64.119   7.755   5.505  1.00  0.00     0.157 HD
HETATM   13  H   UNL     1      63.647   8.474   6.977  1.00  0.00     0.157 HD
ENDBRANCH   3  11
TORSDOF 1
ENDMDL
MODEL 2
REMARK VINA RESULT:      -5.0      1.211      2.175
REMARK  1 active torsions:
REMARK  status: ('A' for Active; 'I' for Inactive)
REMARK    1  A    between atoms: C_3  and  N_7 
ROOT
HETATM    1  N   UNL     1      63.511   9.062   5.698  1.00  0.00    -0.244 N 
ATOM      2  HN  UNL     1      63.912   8.724   6.572  1.00  0.00     0.196 HD
HETATM    3  C   UNL     1      63.055  10.292   5.444  1.00  0.00     0.132 A 
HETATM    4  C   UNL     1      62.570  10.405   4.115  1.00  0.00     0.045 A 
HETATM    5  O   UNL     1      63.326   8.340   4.529  1.00  0.00    -0.235 OA
HETATM    6  C   UNL     1      62.764   9.142   3.586  1.00  0.00     0.112 A 
HETATM    7  C   UNL     1      61.997  11.399   3.300  1.00  0.00     0.018 A 
HETATM    8  C   UNL     1      62.427   8.774   2.286  1.00  0.00     0.040 A 
HETATM    9  C   UNL     1      61.646  11.063   1.985  1.00  0.00     0.001 A 
HETATM   10  C   UNL     1      61.857   9.773   1.488  1.00  0.00     0.003 A 
ENDROOT
BRANCH   3  11
HETATM   11  N   UNL     1      63.053  11.299   6.331  1.00  0.00    -0.383 N 
HETATM   12  H   UNL     1      62.367  11.331   7.037  1.00  0.00     0.157 HD
HETATM   13  H   UNL     1      63.736  12.005   6.275  1.00  0.00     0.157 HD
ENDBRANCH   3  11
TORSDOF 1
ENDMDL
MODEL 3
REMARK VINA RESULT:      -4.7      1.222      1.643
REMARK  1 active torsions:
REMARK  status: ('A' for Active; 'I' for Inactive)
REMARK    1  A    between atoms: C_3  and  N_7 
ROOT
HETATM    1  N   UNL     1      63.486   8.541   5.855  1.00  0.00    -0.244 N 
ATOM      2  HN  UNL     1      63.852   8.077   6.686  1.00  0.00     0.196 HD
HETATM    3  C   UNL     1      63.370   8.024   4.629  1.00  0.00     0.132 A 
HETATM    4  C   UNL     1      62.814   8.959   3.718  1.00  0.00     0.045 A 
HETATM    5  O   UNL     1      63.005   9.839   5.767  1.00  0.00    -0.235 OA
HETATM    6  C   UNL     1      62.606  10.087   4.492  1.00  0.00     0.112 A 
HETATM    7  C   UNL     1      62.465   9.000   2.356  1.00  0.00     0.018 A 
HETATM    8  C   UNL     1      62.069  11.280   4.014  1.00  0.00     0.040 A 
HETATM    9  C   UNL     1      61.920  10.185   1.841  1.00  0.00     0.001 A 
HETATM   10  C   UNL     1      61.727  11.305   2.656  1.00  0.00     0.003 A 
ENDROOT
BRANCH   3  11
HETATM   11  N   UNL     1      63.735   6.777   4.293  1.00  0.00    -0.383 N 
HETATM   12  H   UNL     1      63.075   6.160   3.901  1.00  0.00     0.157 HD
HETATM   13  H   UNL     1      64.662   6.480   4.438  1.00  0.00     0.157 HD
ENDBRANCH   3  11
TORSDOF 1
ENDMDL
MODEL 4
REMARK VINA RESULT:      -4.5      1.736      2.498
REMARK  1 active torsions:
REMARK  status: ('A' for Active; 'I' for Inactive)
REMARK    1  A    between atoms: C_3  and  N_7 
ROOT
HETATM    1  N   UNL     1      63.102   7.157   4.126  1.00  0.00    -0.244 N 
ATOM      2  HN  UNL     1      63.383   6.235   4.459  1.00  0.00     0.196 HD
HETATM    3  C   UNL     1      62.909   8.255   4.862  1.00  0.00     0.132 A 
HETATM    4  C   UNL     1      62.525   9.360   4.060  1.00  0.00     0.045 A 
HETATM    5  O   UNL     1      62.841   7.528   2.816  1.00  0.00    -0.235 OA
HETATM    6  C   UNL     1      62.497   8.842   2.777  1.00  0.00     0.112 A 
HETATM    7  C   UNL     1      62.201  10.717   4.247  1.00  0.00     0.018 A 
HETATM    8  C   UNL     1      62.163   9.574   1.640  1.00  0.00     0.040 A 
HETATM    9  C   UNL     1      61.860  11.484   3.124  1.00  0.00     0.001 A 
HETATM   10  C   UNL     1      61.842  10.921   1.844  1.00  0.00     0.003 A 
ENDROOT
BRANCH   3  11
HETATM   11  N   UNL     1      63.056   8.312   6.194  1.00  0.00    -0.383 N 
HETATM   12  H   UNL     1      62.820   7.533   6.749  1.00  0.00     0.157 HD
HETATM   13  H   UNL     1      63.400   9.131   6.617  1.00  0.00     0.157 HD
ENDBRANCH   3  11
TORSDOF 1
ENDMDL
MODEL 5
REMARK VINA RESULT:      -4.5      1.939      3.189
REMARK  1 active torsions:
REMARK  status: ('A' for Active; 'I' for Inactive)
REMARK    1  A    between atoms: C_3  and  N_7 
ROOT
HETATM    1  N   UNL     1      62.966  10.976   5.266  1.00  0.00    -0.244 N 
ATOM      2  HN  UNL     1      62.602  11.872   5.591  1.00  0.00     0.196 HD
HETATM    3  C   UNL     1      62.468  10.211   4.291  1.00  0.00     0.132 A 
HETATM    4  C   UNL     1      63.237   9.033   4.108  1.00  0.00     0.045 A 
HETATM    5  O   UNL     1      64.079  10.304   5.746  1.00  0.00    -0.235 OA
HETATM    6  C   UNL     1      64.240   9.144   5.056  1.00  0.00     0.112 A 
HETATM    7  C   UNL     1      63.217   7.898   3.277  1.00  0.00     0.018 A 
HETATM    8  C   UNL     1      65.245   8.201   5.251  1.00  0.00     0.040 A 
HETATM    9  C   UNL     1      64.215   6.927   3.446  1.00  0.00     0.001 A 
HETATM   10  C   UNL     1      65.210   7.077   4.417  1.00  0.00     0.003 A 
ENDROOT
BRANCH   3  11
HETATM   11  N   UNL     1      61.376  10.511   3.572  1.00  0.00    -0.383 N 
HETATM   12  H   UNL     1      61.118  11.453   3.438  1.00  0.00     0.157 HD
HETATM   13  H   UNL     1      60.833   9.792   3.177  1.00  0.00     0.157 HD
ENDBRANCH   3  11
TORSDOF 1
ENDMDL
MODEL 6
REMARK VINA RESULT:      -4.4      2.322      3.305
REMARK  1 active torsions:
REMARK  status: ('A' for Active; 'I' for Inactive)
REMARK    1  A    between atoms: C_3  and  N_7 
ROOT
HETATM    1  N   UNL     1      61.358  11.196   2.061  1.00  0.00    -0.244 N 
ATOM      2  HN  UNL     1      60.857  11.755   1.370  1.00  0.00     0.196 HD
HETATM    3  C   UNL     1      61.820   9.952   1.907  1.00  0.00     0.132 A 
HETATM    4  C   UNL     1      62.471   9.488   3.079  1.00  0.00     0.045 A 
HETATM    5  O   UNL     1      61.698  11.570   3.351  1.00  0.00    -0.235 OA
HETATM    6  C   UNL     1      62.361  10.551   3.958  1.00  0.00     0.112 A 
HETATM    7  C   UNL     1      63.129   8.321   3.509  1.00  0.00     0.018 A 
HETATM    8  C   UNL     1      62.861  10.551   5.258  1.00  0.00     0.040 A 
HETATM    9  C   UNL     1      63.646   8.287   4.812  1.00  0.00     0.001 A 
HETATM   10  C   UNL     1      63.513   9.383   5.671  1.00  0.00     0.003 A 
ENDROOT
BRANCH   3  11
HETATM   11  N   UNL     1      61.687   9.225   0.787  1.00  0.00    -0.383 N 
HETATM   12  H   UNL     1      60.852   9.271   0.266  1.00  0.00     0.157 HD
HETATM   13  H   UNL     1      62.423   8.647   0.485  1.00  0.00     0.157 HD
ENDBRANCH   3  11
TORSDOF 1
ENDMDL
MODEL 7
REMARK VINA RESULT:      -4.4      3.373      4.121
REMARK  1 active torsions:
REMARK  status: ('A' for Active; 'I' for Inactive)
REMARK    1  A    between atoms: C_3  and  N_7 
ROOT
HETATM    1  N   UNL     1      66.765   8.661   6.788  1.00  0.00    -0.244 N 
ATOM      2  HN  UNL     1      67.329   9.037   7.550  1.00  0.00     0.196 HD
HETATM    3  C   UNL     1      67.006   7.557   6.076  1.00  0.00     0.132 A 
HETATM    4  C   UNL     1      66.004   7.337   5.097  1.00  0.00     0.045 A 
HETATM    5  O   UNL     1      65.590   9.191   6.279  1.00  0.00    -0.235 OA
HETATM    6  C   UNL     1      65.137   8.402   5.270  1.00  0.00     0.112 A 
HETATM    7  C   UNL     1      65.719   6.390   4.096  1.00  0.00     0.018 A 
HETATM    8  C   UNL     1      63.986   8.609   4.514  1.00  0.00     0.040 A 
HETATM    9  C   UNL     1      64.567   6.567   3.317  1.00  0.00     0.001 A 
HETATM   10  C   UNL     1      63.717   7.658   3.522  1.00  0.00     0.003 A 
ENDROOT
BRANCH   3  11
HETATM   11  N   UNL     1      68.065   6.752   6.258  1.00  0.00    -0.383 N 
HETATM   12  H   UNL     1      68.080   6.122   7.016  1.00  0.00     0.157 HD
HETATM   13  H   UNL     1      68.825   6.791   5.635  1.00  0.00     0.157 HD
ENDBRANCH   3  11
TORSDOF 1
ENDMDL
MODEL 8
REMARK VINA RESULT:      -4.2      1.914      3.106
REMARK  1 active torsions:
REMARK  status: ('A' for Active; 'I' for Inactive)
REMARK    1  A    between atoms: C_3  and  N_7 
ROOT
HETATM    1  N   UNL     1      61.443  10.502   3.261  1.00  0.00    -0.244 N 
ATOM      2  HN  UNL     1      60.751  11.229   3.083  1.00  0.00     0.196 HD
HETATM    3  C   UNL     1      62.370  10.491   4.223  1.00  0.00     0.132 A 
HETATM    4  C   UNL     1      63.161   9.314   4.173  1.00  0.00     0.045 A 
HETATM    5  O   UNL     1      61.616   9.322   2.555  1.00  0.00    -0.235 OA
HETATM    6  C   UNL     1      62.641   8.614   3.098  1.00  0.00     0.112 A 
HETATM    7  C   UNL     1      64.238   8.755   4.886  1.00  0.00     0.018 A 
HETATM    8  C   UNL     1      63.113   7.379   2.662  1.00  0.00     0.040 A 
HETATM    9  C   UNL     1      64.738   7.511   4.474  1.00  0.00     0.001 A 
HETATM   10  C   UNL     1      64.185   6.837   3.381  1.00  0.00     0.003 A 
ENDROOT
BRANCH   3  11
HETATM   11  N   UNL     1      62.539  11.469   5.126  1.00  0.00    -0.383 N 
HETATM   12  H   UNL     1      61.906  12.223   5.159  1.00  0.00     0.157 HD
HETATM   13  H   UNL     1      63.294  11.432   5.756  1.00  0.00     0.157 HD
ENDBRANCH   3  11
TORSDOF 1
ENDMDL
MODEL 9
REMARK VINA RESULT:      -4.2      2.366      3.231
REMARK  1 active torsions:
REMARK  status: ('A' for Active; 'I' for Inactive)
REMARK    1  A    between atoms: C_3  and  N_7 
ROOT
HETATM    1  N   UNL     1      63.031   6.996   3.238  1.00  0.00    -0.244 N 
ATOM      2  HN  UNL     1      63.303   6.023   3.374  1.00  0.00     0.196 HD
HETATM    3  C   UNL     1      62.715   7.590   2.084  1.00  0.00     0.132 A 
HETATM    4  C   UNL     1      62.383   8.956   2.273  1.00  0.00     0.045 A 
HETATM    5  O   UNL     1      62.915   7.975   4.212  1.00  0.00    -0.235 OA
HETATM    6  C   UNL     1      62.529   9.144   3.636  1.00  0.00     0.112 A 
HETATM    7  C   UNL     1      61.985  10.048   1.480  1.00  0.00     0.018 A 
HETATM    8  C   UNL     1      62.310  10.353   4.291  1.00  0.00     0.040 A 
HETATM    9  C   UNL     1      61.754  11.281   2.107  1.00  0.00     0.001 A 
HETATM   10  C   UNL     1      61.915  11.430   3.488  1.00  0.00     0.003 A 
ENDROOT
BRANCH   3  11
HETATM   11  N   UNL     1      62.711   6.976   0.891  1.00  0.00    -0.383 N 
HETATM   12  H   UNL     1      62.478   6.021   0.829  1.00  0.00     0.157 HD
HETATM   13  H   UNL     1      62.939   7.481   0.077  1.00  0.00     0.157 HD
ENDBRANCH   3  11
TORSDOF 1
ENDMDL
