MODEL 1
REMARK VINA RESULT:      -5.4      0.000      0.000
REMARK  1 active torsions:
REMARK  status: ('A' for Active; 'I' for Inactive)
REMARK    1  A    between atoms: C_1  and  C_2 
ROOT
HETATM    1  C   UNL     1      62.786   9.863   4.272  1.00  0.00     0.041 A 
HETATM    2  C   UNL     1      62.138   9.854   3.033  1.00  0.00     0.027 A 
HETATM    3  C   UNL     1      62.252   8.744   2.181  1.00  0.00    -0.031 A 
HETATM    4  C   UNL     1      63.018   7.634   2.573  1.00  0.00     0.034 A 
HETATM    5  N   UNL     1      63.258   6.565   1.715  1.00  0.00    -0.389 N 
HETATM    6  C   UNL     1      63.525   8.749   4.678  1.00  0.00     0.020 A 
HETATM    7  C   UNL     1      63.638   7.646   3.829  1.00  0.00     0.031 A 
HETATM    8  C   UNL     1      62.822   6.664   0.332  1.00  0.00     0.120 C 
HETATM    9  C   UNL     1      61.565   8.766   0.840  1.00  0.00     0.042 C 
HETATM   10  C   UNL     1      61.487   7.379   0.209  1.00  0.00     0.024 C 
HETATM   11  H   UNL     1      63.715   5.755   2.039  1.00  0.00     0.159 HD
ENDROOT
BRANCH   1  12
HETATM   12  C   UNL     1      62.640  11.062   5.134  1.00  0.00     0.209 C 
HETATM   13  O   UNL     1      63.104  11.138   6.253  1.00  0.00    -0.644 OA
HETATM   14  O   UNL     1      61.902  12.043   4.566  1.00  0.00    -0.644 OA
ENDBRANCH   1  12
TORSDOF 1
ENDMDL
MODEL 2
REMARK VINA RESULT:      -5.3      2.183      2.919
REMARK  1 active torsions:
REMARK  status: ('A' for Active; 'I' for Inactive)
REMARK    1  A    between atoms: C_1  and  C_2 
ROOT
HETATM    1  C   UNL     1      63.845   8.715   4.857  1.00  0.00     0.041 A 
HETATM    2  C   UNL     1      63.750   7.893   3.730  1.00  0.00     0.027 A 
HETATM    3  C   UNL     1      62.824   8.185   2.716  1.00  0.00    -0.031 A 
HETATM    4  C   UNL     1      61.991   9.310   2.829  1.00  0.00     0.034 A 
HETATM    5  N   UNL     1      60.978   9.572   1.910  1.00  0.00    -0.389 N 
HETATM    6  C   UNL     1      63.037   9.850   4.960  1.00  0.00     0.020 A 
HETATM    7  C   UNL     1      62.117  10.139   3.950  1.00  0.00     0.031 A 
HETATM    8  C   UNL     1      60.687   8.582   0.886  1.00  0.00     0.120 C 
HETATM    9  C   UNL     1      62.723   7.273   1.521  1.00  0.00     0.042 C 
HETATM   10  C   UNL     1      61.950   7.912   0.371  1.00  0.00     0.024 C 
HETATM   11  H   UNL     1      60.468  10.413   1.952  1.00  0.00     0.159 HD
ENDROOT
BRANCH   1  12
HETATM   12  C   UNL     1      64.834   8.360   5.905  1.00  0.00     0.209 C 
HETATM   13  O   UNL     1      65.901   8.926   6.032  1.00  0.00    -0.644 OA
HETATM   14  O   UNL     1      64.448   7.318   6.675  1.00  0.00    -0.644 OA
ENDBRANCH   1  12
TORSDOF 1
ENDMDL
MODEL 3
REMARK VINA RESULT:      -5.0      1.233      2.246
REMARK  1 active torsions:
REMARK  status: ('A' for Active; 'I' for Inactive)
REMARK    1  A    between atoms: C_1  and  C_2 
ROOT
HETATM    1  C   UNL     1      62.867   9.971   4.223  1.00  0.00     0.041 A 
HETATM    2  C   UNL     1      63.208   8.689   3.780  1.00  0.00     0.027 A 
HETATM    3  C   UNL     1      62.734   8.217   2.545  1.00  0.00    -0.031 A 
HETATM    4  C   UNL     1      61.918   9.035   1.747  1.00  0.00     0.034 A 
HETATM    5  N   UNL     1      61.329   8.568   0.575  1.00  0.00    -0.389 N 
HETATM    6  C   UNL     1      62.078  10.798   3.418  1.00  0.00     0.020 A 
HETATM    7  C   UNL     1      61.609  10.326   2.191  1.00  0.00     0.031 A 
HETATM    8  C   UNL     1      61.448   7.158   0.243  1.00  0.00     0.120 C 
HETATM    9  C   UNL     1      63.094   6.824   2.098  1.00  0.00     0.042 C 
HETATM   10  C   UNL     1      62.814   6.603   0.615  1.00  0.00     0.024 C 
HETATM   11  H   UNL     1      60.839   9.182  -0.019  1.00  0.00     0.159 HD
ENDROOT
BRANCH   1  12
HETATM   12  C   UNL     1      63.386  10.422   5.538  1.00  0.00     0.209 C 
HETATM   13  O   UNL     1      62.812  11.230   6.238  1.00  0.00    -0.644 OA
HETATM   14  O   UNL     1      64.581   9.876   5.856  1.00  0.00    -0.644 OA
ENDBRANCH   1  12
TORSDOF 1
ENDMDL
MODEL 4
REMARK VINA RESULT:      -4.7      4.687      6.538
REMARK  1 active torsions:
REMARK  status: ('A' for Active; 'I' for Inactive)
REMARK    1  A    between atoms: C_1  and  C_2 
ROOT
HETATM    1  C   UNL     1      65.499   7.620   5.356  1.00  0.00     0.041 A 
HETATM    2  C   UNL     1      65.707   7.430   6.726  1.00  0.00     0.027 A 
HETATM    3  C   UNL     1      66.588   6.434   7.177  1.00  0.00    -0.031 A 
HETATM    4  C   UNL     1      67.269   5.627   6.251  1.00  0.00     0.034 A 
HETATM    5  N   UNL     1      68.058   4.552   6.652  1.00  0.00    -0.389 N 
HETATM    6  C   UNL     1      66.196   6.837   4.432  1.00  0.00     0.020 A 
HETATM    7  C   UNL     1      67.072   5.848   4.883  1.00  0.00     0.031 A 
HETATM    8  C   UNL     1      68.065   4.171   8.055  1.00  0.00     0.120 C 
HETATM    9  C   UNL     1      66.779   6.231   8.658  1.00  0.00     0.042 C 
HETATM   10  C   UNL     1      68.008   5.383   8.971  1.00  0.00     0.024 C 
HETATM   11  H   UNL     1      68.602   4.058   5.997  1.00  0.00     0.159 HD
ENDROOT
BRANCH   1  12
HETATM   12  C   UNL     1      64.553   8.681   4.929  1.00  0.00     0.209 C 
HETATM   13  O   UNL     1      63.822   8.571   3.965  1.00  0.00    -0.644 OA
HETATM   14  O   UNL     1      64.617   9.794   5.693  1.00  0.00    -0.644 OA
ENDBRANCH   1  12
TORSDOF 1
ENDMDL
MODEL 5
REMARK VINA RESULT:      -4.7      2.532      3.704
REMARK  1 active torsions:
REMARK  status: ('A' for Active; 'I' for Inactive)
REMARK    1  A    between atoms: C_1  and  C_2 
ROOT
HETATM    1  C   UNL     1      65.530   7.679   5.246  1.00  0.00     0.041 A 
HETATM    2  C   UNL     1      64.557   8.681   5.184  1.00  0.00     0.027 A 
HETATM    3  C   UNL     1      63.584   8.663   4.172  1.00  0.00    -0.031 A 
HETATM    4  C   UNL     1      63.584   7.632   3.217  1.00  0.00     0.034 A 
HETATM    5  N   UNL     1      62.716   7.638   2.129  1.00  0.00    -0.389 N 
HETATM    6  C   UNL     1      65.516   6.637   4.314  1.00  0.00     0.020 A 
HETATM    7  C   UNL     1      64.547   6.621   3.308  1.00  0.00     0.031 A 
HETATM    8  C   UNL     1      61.886   8.809   1.899  1.00  0.00     0.120 C 
HETATM    9  C   UNL     1      62.559   9.765   4.111  1.00  0.00     0.042 C 
HETATM   10  C   UNL     1      61.386   9.413   3.201  1.00  0.00     0.024 C 
HETATM   11  H   UNL     1      62.665   6.862   1.524  1.00  0.00     0.159 HD
ENDROOT
BRANCH   1  12
HETATM   12  C   UNL     1      66.541   7.746   6.330  1.00  0.00     0.209 C 
HETATM   13  O   UNL     1      67.165   6.779   6.719  1.00  0.00    -0.644 OA
HETATM   14  O   UNL     1      66.666   8.979   6.870  1.00  0.00    -0.644 OA
ENDBRANCH   1  12
TORSDOF 1
ENDMDL
MODEL 6
REMARK VINA RESULT:      -4.6      1.993      2.385
REMARK  1 active torsions:
REMARK  status: ('A' for Active; 'I' for Inactive)
REMARK    1  A    between atoms: C_1  and  C_2 
ROOT
HETATM    1  C   UNL     1      63.237   8.471   4.507  1.00  0.00     0.041 A 
HETATM    2  C   UNL     1      62.887   8.862   3.212  1.00  0.00     0.027 A 
HETATM    3  C   UNL     1      61.771   8.294   2.576  1.00  0.00    -0.031 A 
HETATM    4  C   UNL     1      60.999   7.330   3.245  1.00  0.00     0.034 A 
HETATM    5  N   UNL     1      59.958   6.653   2.614  1.00  0.00    -0.389 N 
HETATM    6  C   UNL     1      62.454   7.533   5.186  1.00  0.00     0.020 A 
HETATM    7  C   UNL     1      61.345   6.969   4.552  1.00  0.00     0.031 A 
HETATM    8  C   UNL     1      59.758   6.849   1.187  1.00  0.00     0.120 C 
HETATM    9  C   UNL     1      61.426   8.713   1.171  1.00  0.00     0.042 C 
HETATM   10  C   UNL     1      60.017   8.287   0.771  1.00  0.00     0.024 C 
HETATM   11  H   UNL     1      59.369   6.052   3.124  1.00  0.00     0.159 HD
ENDROOT
BRANCH   1  12
HETATM   12  C   UNL     1      64.429   9.096   5.133  1.00  0.00     0.209 C 
HETATM   13  O   UNL     1      65.538   8.602   5.092  1.00  0.00    -0.644 OA
HETATM   14  O   UNL     1      64.148  10.244   5.789  1.00  0.00    -0.644 OA
ENDBRANCH   1  12
TORSDOF 1
ENDMDL
MODEL 7
REMARK VINA RESULT:      -4.6      2.831      4.508
REMARK  1 active torsions:
REMARK  status: ('A' for Active; 'I' for Inactive)
REMARK    1  A    between atoms: C_1  and  C_2 
ROOT
HETATM    1  C   UNL     1      62.445   8.665   3.052  1.00  0.00     0.041 A 
HETATM    2  C   UNL     1      63.394   7.639   3.099  1.00  0.00     0.027 A 
HETATM    3  C   UNL     1      64.350   7.604   4.127  1.00  0.00    -0.031 A 
HETATM    4  C   UNL     1      64.353   8.600   5.117  1.00  0.00     0.034 A 
HETATM    5  N   UNL     1      65.351   8.674   6.084  1.00  0.00    -0.389 N 
HETATM    6  C   UNL     1      62.427   9.642   4.052  1.00  0.00     0.020 A 
HETATM    7  C   UNL     1      63.379   9.605   5.073  1.00  0.00     0.031 A 
HETATM    8  C   UNL     1      66.494   7.782   5.982  1.00  0.00     0.120 C 
HETATM    9  C   UNL     1      65.378   6.503   4.144  1.00  0.00     0.042 C 
HETATM   10  C   UNL     1      66.093   6.402   5.488  1.00  0.00     0.024 C 
HETATM   11  H   UNL     1      65.285   9.319   6.825  1.00  0.00     0.159 HD
ENDROOT
BRANCH   1  12
HETATM   12  C   UNL     1      61.460   8.662   1.942  1.00  0.00     0.209 C 
HETATM   13  O   UNL     1      60.445   7.995   1.954  1.00  0.00    -0.644 OA
HETATM   14  O   UNL     1      61.827   9.442   0.900  1.00  0.00    -0.644 OA
ENDBRANCH   1  12
TORSDOF 1
ENDMDL
MODEL 8
REMARK VINA RESULT:      -4.4      3.563      4.913
REMARK  1 active torsions:
REMARK  status: ('A' for Active; 'I' for Inactive)
REMARK    1  A    between atoms: C_1  and  C_2 
ROOT
HETATM    1  C   UNL     1      63.612   6.678   2.720  1.00  0.00     0.041 A 
HETATM    2  C   UNL     1      62.718   7.749   2.634  1.00  0.00     0.027 A 
HETATM    3  C   UNL     1      62.819   8.831   3.523  1.00  0.00    -0.031 A 
HETATM    4  C   UNL     1      63.825   8.842   4.503  1.00  0.00     0.034 A 
HETATM    5  N   UNL     1      63.892   9.831   5.480  1.00  0.00    -0.389 N 
HETATM    6  C   UNL     1      64.632   6.699   3.676  1.00  0.00     0.020 A 
HETATM    7  C   UNL     1      64.731   7.776   4.559  1.00  0.00     0.031 A 
HETATM    8  C   UNL     1      62.810  10.799   5.572  1.00  0.00     0.120 C 
HETATM    9  C   UNL     1      61.830   9.964   3.427  1.00  0.00     0.042 C 
HETATM   10  C   UNL     1      62.287  11.196   4.202  1.00  0.00     0.024 C 
HETATM   11  H   UNL     1      64.657   9.876   6.097  1.00  0.00     0.159 HD
ENDROOT
BRANCH   1  12
HETATM   12  C   UNL     1      63.459   5.555   1.762  1.00  0.00     0.209 C 
HETATM   13  O   UNL     1      62.398   5.255   1.252  1.00  0.00    -0.644 OA
HETATM   14  O   UNL     1      64.607   4.875   1.548  1.00  0.00    -0.644 OA
ENDBRANCH   1  12
TORSDOF 1
ENDMDL
MODEL 9
REMARK VINA RESULT:      -4.3      3.022      3.801
REMARK  1 active torsions:
REMARK  status: ('A' for Active; 'I' for Inactive)
REMARK    1  A    between atoms: C_1  and  C_2 
ROOT
HETATM    1  C   UNL     1      63.331   8.450   4.549  1.00  0.00     0.041 A 
HETATM    2  C   UNL     1      62.544   7.397   5.026  1.00  0.00     0.027 A 
HETATM    3  C   UNL     1      61.237   7.215   4.546  1.00  0.00    -0.031 A 
HETATM    4  C   UNL     1      60.716   8.089   3.578  1.00  0.00     0.034 A 
HETATM    5  N   UNL     1      59.390   8.021   3.161  1.00  0.00    -0.389 N 
HETATM    6  C   UNL     1      62.826   9.306   3.566  1.00  0.00     0.020 A 
HETATM    7  C   UNL     1      61.526   9.121   3.089  1.00  0.00     0.031 A 
HETATM    8  C   UNL     1      58.485   7.111   3.846  1.00  0.00     0.120 C 
HETATM    9  C   UNL     1      60.399   6.088   5.092  1.00  0.00     0.042 C 
HETATM   10  C   UNL     1      59.172   5.810   4.228  1.00  0.00     0.024 C 
HETATM   11  H   UNL     1      59.069   8.578   2.416  1.00  0.00     0.159 HD
ENDROOT
BRANCH   1  12
HETATM   12  C   UNL     1      64.703   8.606   5.093  1.00  0.00     0.209 C 
HETATM   13  O   UNL     1      65.029   9.519   5.825  1.00  0.00    -0.644 OA
HETATM   14  O   UNL     1      65.561   7.657   4.657  1.00  0.00    -0.644 OA
ENDBRANCH   1  12
TORSDOF 1
ENDMDL
