MODEL 1
REMARK VINA RESULT:      -3.9      0.000      0.000
REMARK  2 active torsions:
REMARK  status: ('A' for Active; 'I' for Inactive)
REMARK    1  A    between atoms: N_3  and  C_7 
REMARK    2  A    between atoms: C_4  and  C_7 
ROOT
HETATM    1  N   UNL     1      61.648  10.897   1.877  1.00  0.00    -0.375 N 
ATOM      2  HN  UNL     1      61.306  11.429   1.076  1.00  0.00     0.164 HD
HETATM    3  C   UNL     1      62.593   9.428   4.085  1.00  0.00    -0.030 A 
HETATM    4  C   UNL     1      61.965   9.588   1.778  1.00  0.00     0.088 A 
HETATM    5  C   UNL     1      61.807  11.463   3.090  1.00  0.00     0.088 A 
HETATM    6  C   UNL     1      62.434   8.823   2.836  1.00  0.00     0.026 A 
HETATM    7  C   UNL     1      62.277  10.786   4.205  1.00  0.00     0.026 A 
ENDROOT
BRANCH   3   8
HETATM    8  C   UNL     1      63.109   8.641   5.267  1.00  0.00     0.270 C 
BRANCH   8   9
HETATM    9  N   UNL     1      64.466   9.048   5.628  1.00  0.00    -0.075 N 
HETATM   10  C   UNL     1      65.454   8.129   5.082  1.00  0.00     0.267 C 
HETATM   11  H   UNL     1      64.551   9.062   6.644  1.00  0.00     0.277 HD
HETATM   12  H   UNL     1      64.640   9.975   5.240  1.00  0.00     0.277 HD
ENDBRANCH   8   9
ENDBRANCH   3   8
TORSDOF 2
ENDMDL
MODEL 2
REMARK VINA RESULT:      -3.9      0.136      1.570
REMARK  2 active torsions:
REMARK  status: ('A' for Active; 'I' for Inactive)
REMARK    1  A    between atoms: N_3  and  C_7 
REMARK    2  A    between atoms: C_4  and  C_7 
ROOT
HETATM    1  N   UNL     1      61.661  10.842   1.979  1.00  0.00    -0.375 N 
ATOM      2  HN  UNL     1      61.290  11.390   1.202  1.00  0.00     0.164 HD
HETATM    3  C   UNL     1      62.682   9.330   4.123  1.00  0.00    -0.030 A 
HETATM    4  C   UNL     1      61.814  11.369   3.212  1.00  0.00     0.088 A 
HETATM    5  C   UNL     1      62.025   9.552   1.828  1.00  0.00     0.088 A 
HETATM    6  C   UNL     1      62.312  10.666   4.299  1.00  0.00     0.026 A 
HETATM    7  C   UNL     1      62.524   8.764   2.854  1.00  0.00     0.026 A 
ENDROOT
BRANCH   3   8
HETATM    8  C   UNL     1      63.221   8.518   5.277  1.00  0.00     0.270 C 
BRANCH   8   9
HETATM    9  N   UNL     1      64.561   8.961   5.662  1.00  0.00    -0.075 N 
HETATM   10  C   UNL     1      65.582   8.072   5.127  1.00  0.00     0.267 C 
HETATM   11  H   UNL     1      64.629   8.971   6.679  1.00  0.00     0.277 HD
HETATM   12  H   UNL     1      64.715   9.894   5.282  1.00  0.00     0.277 HD
ENDBRANCH   8   9
ENDBRANCH   3   8
TORSDOF 2
ENDMDL
MODEL 3
REMARK VINA RESULT:      -3.7      1.441      4.062
REMARK  2 active torsions:
REMARK  status: ('A' for Active; 'I' for Inactive)
REMARK    1  A    between atoms: N_3  and  C_7 
REMARK    2  A    between atoms: C_4  and  C_7 
ROOT
HETATM    1  N   UNL     1      63.353  10.280   5.586  1.00  0.00    -0.375 N 
ATOM      2  HN  UNL     1      63.685  10.616   6.490  1.00  0.00     0.164 HD
HETATM    3  C   UNL     1      62.436   9.353   3.090  1.00  0.00    -0.030 A 
HETATM    4  C   UNL     1      62.491  10.997   4.833  1.00  0.00     0.088 A 
HETATM    5  C   UNL     1      63.750   9.095   5.079  1.00  0.00     0.088 A 
HETATM    6  C   UNL     1      62.012  10.584   3.599  1.00  0.00     0.026 A 
HETATM    7  C   UNL     1      63.335   8.600   3.852  1.00  0.00     0.026 A 
ENDROOT
BRANCH   3   8
HETATM    8  C   UNL     1      61.951   8.862   1.747  1.00  0.00     0.270 C 
BRANCH   8   9
HETATM    9  N   UNL     1      60.518   9.098   1.578  1.00  0.00    -0.075 N 
HETATM   10  C   UNL     1      59.921   8.104   0.698  1.00  0.00     0.267 C 
HETATM   11  H   UNL     1      60.378  10.025   1.176  1.00  0.00     0.277 HD
HETATM   12  H   UNL     1      60.069   9.031   2.491  1.00  0.00     0.277 HD
ENDBRANCH   8   9
ENDBRANCH   3   8
TORSDOF 2
ENDMDL
MODEL 4
REMARK VINA RESULT:      -3.5      1.334      3.885
REMARK  2 active torsions:
REMARK  status: ('A' for Active; 'I' for Inactive)
REMARK    1  A    between atoms: N_3  and  C_7 
REMARK    2  A    between atoms: C_4  and  C_7 
ROOT
HETATM    1  N   UNL     1      64.790   7.021   4.201  1.00  0.00    -0.375 N 
ATOM      2  HN  UNL     1      65.427   6.225   4.245  1.00  0.00     0.164 HD
HETATM    3  C   UNL     1      63.030   9.215   4.081  1.00  0.00    -0.030 A 
HETATM    4  C   UNL     1      63.845   7.123   3.243  1.00  0.00     0.088 A 
HETATM    5  C   UNL     1      64.847   8.026   5.098  1.00  0.00     0.088 A 
HETATM    6  C   UNL     1      62.956   8.183   3.142  1.00  0.00     0.026 A 
HETATM    7  C   UNL     1      63.998   9.123   5.087  1.00  0.00     0.026 A 
ENDROOT
BRANCH   3   8
HETATM    8  C   UNL     1      62.078  10.387   4.020  1.00  0.00     0.270 C 
BRANCH   8   9
HETATM    9  N   UNL     1      61.443  10.491   2.708  1.00  0.00    -0.075 N 
HETATM   10  C   UNL     1      61.777  11.751   2.061  1.00  0.00     0.267 C 
HETATM   11  H   UNL     1      60.431  10.434   2.822  1.00  0.00     0.277 HD
HETATM   12  H   UNL     1      61.782   9.728   2.122  1.00  0.00     0.277 HD
ENDBRANCH   8   9
ENDBRANCH   3   8
TORSDOF 2
ENDMDL
MODEL 5
REMARK VINA RESULT:      -3.4      2.048      3.074
REMARK  2 active torsions:
REMARK  status: ('A' for Active; 'I' for Inactive)
REMARK    1  A    between atoms: N_3  and  C_7 
REMARK    2  A    between atoms: C_4  and  C_7 
ROOT
HETATM    1  N   UNL     1      62.365  11.626   4.800  1.00  0.00    -0.375 N 
ATOM      2  HN  UNL     1      62.236  12.531   5.252  1.00  0.00     0.164 HD
HETATM    3  C   UNL     1      62.720   9.127   3.553  1.00  0.00    -0.030 A 
HETATM    4  C   UNL     1      63.017  10.613   5.409  1.00  0.00     0.088 A 
HETATM    5  C   UNL     1      61.894  11.378   3.561  1.00  0.00     0.088 A 
HETATM    6  C   UNL     1      63.218   9.365   4.837  1.00  0.00     0.026 A 
HETATM    7  C   UNL     1      62.035  10.162   2.909  1.00  0.00     0.026 A 
ENDROOT
BRANCH   3   8
HETATM    8  C   UNL     1      62.904   7.782   2.890  1.00  0.00     0.270 C 
BRANCH   8   9
HETATM    9  N   UNL     1      61.620   7.199   2.501  1.00  0.00    -0.075 N 
HETATM   10  C   UNL     1      60.946   6.604   3.646  1.00  0.00     0.267 C 
HETATM   11  H   UNL     1      61.781   6.478   1.798  1.00  0.00     0.277 HD
HETATM   12  H   UNL     1      61.028   7.939   2.127  1.00  0.00     0.277 HD
ENDBRANCH   8   9
ENDBRANCH   3   8
TORSDOF 2
ENDMDL
MODEL 6
REMARK VINA RESULT:      -3.3     12.267     13.855
REMARK  2 active torsions:
REMARK  status: ('A' for Active; 'I' for Inactive)
REMARK    1  A    between atoms: N_3  and  C_7 
REMARK    2  A    between atoms: C_4  and  C_7 
ROOT
HETATM    1  N   UNL     1      59.427   2.075  12.702  1.00  0.00    -0.375 N 
ATOM      2  HN  UNL     1      60.417   2.079  12.456  1.00  0.00     0.164 HD
HETATM    3  C   UNL     1      56.696   2.067  13.385  1.00  0.00    -0.030 A 
HETATM    4  C   UNL     1      58.995   1.635  13.904  1.00  0.00     0.088 A 
HETATM    5  C   UNL     1      58.481   2.509  11.846  1.00  0.00     0.088 A 
HETATM    6  C   UNL     1      57.662   1.611  14.286  1.00  0.00     0.026 A 
HETATM    7  C   UNL     1      57.125   2.533  12.138  1.00  0.00     0.026 A 
ENDROOT
BRANCH   3   8
HETATM    8  C   UNL     1      55.231   2.070  13.756  1.00  0.00     0.270 C 
BRANCH   8   9
HETATM    9  N   UNL     1      54.921   3.149  14.693  1.00  0.00    -0.075 N 
HETATM   10  C   UNL     1      54.388   4.312  13.997  1.00  0.00     0.267 C 
HETATM   11  H   UNL     1      55.772   3.418  15.186  1.00  0.00     0.277 HD
HETATM   12  H   UNL     1      54.215   2.816  15.349  1.00  0.00     0.277 HD
ENDBRANCH   8   9
ENDBRANCH   3   8
TORSDOF 2
ENDMDL
MODEL 7
REMARK VINA RESULT:      -3.2      3.737      7.341
REMARK  2 active torsions:
REMARK  status: ('A' for Active; 'I' for Inactive)
REMARK    1  A    between atoms: N_3  and  C_7 
REMARK    2  A    between atoms: C_4  and  C_7 
ROOT
HETATM    1  N   UNL     1      67.808   4.807   8.714  1.00  0.00    -0.375 N 
ATOM      2  HN  UNL     1      68.060   4.087   9.392  1.00  0.00     0.164 HD
HETATM    3  C   UNL     1      67.115   6.794   6.844  1.00  0.00    -0.030 A 
HETATM    4  C   UNL     1      67.245   5.975   9.092  1.00  0.00     0.088 A 
HETATM    5  C   UNL     1      68.019   4.641   7.393  1.00  0.00     0.088 A 
HETATM    6  C   UNL     1      66.887   6.983   8.209  1.00  0.00     0.026 A 
HETATM    7  C   UNL     1      67.704   5.593   6.434  1.00  0.00     0.026 A 
ENDROOT
BRANCH   3   8
HETATM    8  C   UNL     1      66.751   7.865   5.842  1.00  0.00     0.270 C 
BRANCH   8   9
HETATM    9  N   UNL     1      65.478   8.500   6.179  1.00  0.00    -0.075 N 
HETATM   10  C   UNL     1      64.629   8.630   5.004  1.00  0.00     0.267 C 
HETATM   11  H   UNL     1      65.659   9.427   6.563  1.00  0.00     0.277 HD
HETATM   12  H   UNL     1      64.995   7.916   6.861  1.00  0.00     0.277 HD
ENDBRANCH   8   9
ENDBRANCH   3   8
TORSDOF 2
ENDMDL
MODEL 8
REMARK VINA RESULT:      -3.2      2.500      5.525
REMARK  2 active torsions:
REMARK  status: ('A' for Active; 'I' for Inactive)
REMARK    1  A    between atoms: N_3  and  C_7 
REMARK    2  A    between atoms: C_4  and  C_7 
ROOT
HETATM    1  N   UNL     1      67.698   6.844   6.789  1.00  0.00    -0.375 N 
ATOM      2  HN  UNL     1      68.527   6.493   7.270  1.00  0.00     0.164 HD
HETATM    3  C   UNL     1      65.411   7.817   5.467  1.00  0.00    -0.030 A 
HETATM    4  C   UNL     1      66.464   6.736   7.328  1.00  0.00     0.088 A 
HETATM    5  C   UNL     1      67.777   7.442   5.584  1.00  0.00     0.088 A 
HETATM    6  C   UNL     1      65.309   7.199   6.715  1.00  0.00     0.026 A 
HETATM    7  C   UNL     1      66.682   7.945   4.896  1.00  0.00     0.026 A 
ENDROOT
BRANCH   3   8
HETATM    8  C   UNL     1      64.184   8.347   4.762  1.00  0.00     0.270 C 
BRANCH   8   9
HETATM    9  N   UNL     1      63.277   9.013   5.697  1.00  0.00    -0.075 N 
HETATM   10  C   UNL     1      62.981  10.370   5.264  1.00  0.00     0.267 C 
HETATM   11  H   UNL     1      63.713   9.045   6.618  1.00  0.00     0.277 HD
HETATM   12  H   UNL     1      62.404   8.487   5.731  1.00  0.00     0.277 HD
ENDBRANCH   8   9
ENDBRANCH   3   8
TORSDOF 2
ENDMDL
MODEL 9
REMARK VINA RESULT:      -3.2      5.184      7.301
REMARK  2 active torsions:
REMARK  status: ('A' for Active; 'I' for Inactive)
REMARK    1  A    between atoms: N_3  and  C_7 
REMARK    2  A    between atoms: C_4  and  C_7 
ROOT
HETATM    1  N   UNL     1      66.669   4.770   8.847  1.00  0.00    -0.375 N 
ATOM      2  HN  UNL     1      66.383   4.204   9.647  1.00  0.00     0.164 HD
HETATM    3  C   UNL     1      67.453   6.332   6.640  1.00  0.00    -0.030 A 
HETATM    4  C   UNL     1      67.388   4.253   7.829  1.00  0.00     0.088 A 
HETATM    5  C   UNL     1      66.346   6.076   8.752  1.00  0.00     0.088 A 
HETATM    6  C   UNL     1      67.798   4.981   6.722  1.00  0.00     0.026 A 
HETATM    7  C   UNL     1      66.702   6.885   7.683  1.00  0.00     0.026 A 
ENDROOT
BRANCH   3   8
HETATM    8  C   UNL     1      67.867   7.167   5.451  1.00  0.00     0.270 C 
BRANCH   8   9
HETATM    9  N   UNL     1      67.533   6.504   4.191  1.00  0.00    -0.075 N 
HETATM   10  C   UNL     1      66.110   6.607   3.904  1.00  0.00     0.267 C 
HETATM   11  H   UNL     1      67.789   5.519   4.255  1.00  0.00     0.277 HD
HETATM   12  H   UNL     1      68.048   6.960   3.439  1.00  0.00     0.277 HD
ENDBRANCH   8   9
ENDBRANCH   3   8
TORSDOF 2
ENDMDL
