MODEL 1
REMARK VINA RESULT:      -3.4      0.000      0.000
REMARK  1 active torsions:
REMARK  status: ('A' for Active; 'I' for Inactive)
REMARK    1  A    between atoms: C_1  and  C_2 
ROOT
HETATM    1  C   UNL     1      62.515   9.636   3.762  1.00  0.00     0.008 A 
HETATM    2  S   UNL     1      62.071   9.292   1.218  1.00  0.00    -0.113 SA
HETATM    3  C   UNL     1      62.586   8.700   2.738  1.00  0.00     0.064 A 
HETATM    4  C   UNL     1      62.009  10.878   3.221  1.00  0.00     0.022 A 
HETATM    5  C   UNL     1      61.732  10.826   1.874  1.00  0.00     0.050 A 
ENDROOT
BRANCH   1   6
HETATM    6  C   UNL     1      62.901   9.362   5.149  1.00  0.00     0.105 C 
HETATM    7  S   UNL     1      62.906   7.811   5.751  1.00  0.00    -0.060 SA
HETATM    8  N   UNL     1      63.262  10.400   5.959  1.00  0.00    -0.390 N 
HETATM    9  H   UNL     1      63.262  11.320   5.611  1.00  0.00     0.157 HD
HETATM   10  H   UNL     1      63.523  10.227   6.893  1.00  0.00     0.157 HD
ENDBRANCH   1   6
TORSDOF 1
ENDMDL
MODEL 2
REMARK VINA RESULT:      -3.4      1.382      1.451
REMARK  1 active torsions:
REMARK  status: ('A' for Active; 'I' for Inactive)
REMARK    1  A    between atoms: C_1  and  C_2 
ROOT
HETATM    1  C   UNL     1      62.920   9.224   4.193  1.00  0.00     0.008 A 
HETATM    2  S   UNL     1      61.903   9.802   1.865  1.00  0.00    -0.113 SA
HETATM    3  C   UNL     1      62.709   8.719   2.917  1.00  0.00     0.064 A 
HETATM    4  C   UNL     1      62.378  10.564   4.259  1.00  0.00     0.022 A 
HETATM    5  C   UNL     1      61.805  10.989   3.081  1.00  0.00     0.050 A 
ENDROOT
BRANCH   1   6
HETATM    6  C   UNL     1      63.589   8.483   5.266  1.00  0.00     0.105 C 
HETATM    7  S   UNL     1      65.215   8.139   5.190  1.00  0.00    -0.060 SA
HETATM    8  N   UNL     1      62.863   8.068   6.345  1.00  0.00    -0.390 N 
HETATM    9  H   UNL     1      61.902   8.268   6.397  1.00  0.00     0.157 HD
HETATM   10  H   UNL     1      63.303   7.570   7.072  1.00  0.00     0.157 HD
ENDBRANCH   1   6
TORSDOF 1
ENDMDL
MODEL 3
REMARK VINA RESULT:      -3.2      2.214      3.448
REMARK  1 active torsions:
REMARK  status: ('A' for Active; 'I' for Inactive)
REMARK    1  A    between atoms: C_1  and  C_2 
ROOT
HETATM    1  C   UNL     1      63.888   8.940   4.671  1.00  0.00     0.008 A 
HETATM    2  S   UNL     1      64.544   6.610   3.705  1.00  0.00    -0.113 SA
HETATM    3  C   UNL     1      63.509   7.972   3.750  1.00  0.00     0.064 A 
HETATM    4  C   UNL     1      65.090   8.495   5.344  1.00  0.00     0.022 A 
HETATM    5  C   UNL     1      65.543   7.267   4.918  1.00  0.00     0.050 A 
ENDROOT
BRANCH   1   6
HETATM    6  C   UNL     1      63.159  10.192   4.890  1.00  0.00     0.105 C 
HETATM    7  S   UNL     1      61.939  10.667   3.865  1.00  0.00    -0.060 SA
HETATM    8  N   UNL     1      63.489  10.981   5.954  1.00  0.00    -0.390 N 
HETATM    9  H   UNL     1      64.210  10.706   6.565  1.00  0.00     0.157 HD
HETATM   10  H   UNL     1      63.005  11.824   6.111  1.00  0.00     0.157 HD
ENDBRANCH   1   6
TORSDOF 1
ENDMDL
MODEL 4
REMARK VINA RESULT:      -3.1      1.940      2.447
REMARK  1 active torsions:
REMARK  status: ('A' for Active; 'I' for Inactive)
REMARK    1  A    between atoms: C_1  and  C_2 
ROOT
HETATM    1  C   UNL     1      63.565   8.572   4.714  1.00  0.00     0.008 A 
HETATM    2  S   UNL     1      61.998  10.406   3.729  1.00  0.00    -0.113 SA
HETATM    3  C   UNL     1      62.956   9.786   5.005  1.00  0.00     0.064 A 
HETATM    4  C   UNL     1      63.199   8.178   3.371  1.00  0.00     0.022 A 
HETATM    5  C   UNL     1      62.367   9.073   2.737  1.00  0.00     0.050 A 
ENDROOT
BRANCH   1   6
HETATM    6  C   UNL     1      64.431   7.847   5.647  1.00  0.00     0.105 C 
HETATM    7  S   UNL     1      64.043   6.316   6.169  1.00  0.00    -0.060 SA
HETATM    8  N   UNL     1      65.576   8.441   6.096  1.00  0.00    -0.390 N 
HETATM    9  H   UNL     1      65.813   9.346   5.792  1.00  0.00     0.157 HD
HETATM   10  H   UNL     1      66.165   7.962   6.724  1.00  0.00     0.157 HD
ENDBRANCH   1   6
TORSDOF 1
ENDMDL
MODEL 5
REMARK VINA RESULT:      -3.0      2.776      3.797
REMARK  1 active torsions:
REMARK  status: ('A' for Active; 'I' for Inactive)
REMARK    1  A    between atoms: C_1  and  C_2 
ROOT
HETATM    1  C   UNL     1      61.700   9.465   2.074  1.00  0.00     0.008 A 
HETATM    2  S   UNL     1      62.339  10.311   4.454  1.00  0.00    -0.113 SA
HETATM    3  C   UNL     1      62.068   9.038   3.344  1.00  0.00     0.064 A 
HETATM    4  C   UNL     1      61.654  10.911   2.066  1.00  0.00     0.022 A 
HETATM    5  C   UNL     1      61.976  11.484   3.275  1.00  0.00     0.050 A 
ENDROOT
BRANCH   1   6
HETATM    6  C   UNL     1      61.416   8.560   0.958  1.00  0.00     0.105 C 
HETATM    7  S   UNL     1      59.858   8.101   0.597  1.00  0.00    -0.060 SA
HETATM    8  N   UNL     1      62.449   8.085   0.202  1.00  0.00    -0.390 N 
HETATM    9  H   UNL     1      63.373   8.352   0.408  1.00  0.00     0.157 HD
HETATM   10  H   UNL     1      62.268   7.477  -0.552  1.00  0.00     0.157 HD
ENDBRANCH   1   6
TORSDOF 1
ENDMDL
MODEL 6
REMARK VINA RESULT:      -3.0      2.240      3.790
REMARK  1 active torsions:
REMARK  status: ('A' for Active; 'I' for Inactive)
REMARK    1  A    between atoms: C_1  and  C_2 
ROOT
HETATM    1  C   UNL     1      62.941   8.770   3.830  1.00  0.00     0.008 A 
HETATM    2  S   UNL     1      65.045   8.197   5.256  1.00  0.00    -0.113 SA
HETATM    3  C   UNL     1      63.703   9.201   4.908  1.00  0.00     0.064 A 
HETATM    4  C   UNL     1      63.527   7.558   3.301  1.00  0.00     0.022 A 
HETATM    5  C   UNL     1      64.654   7.146   3.975  1.00  0.00     0.050 A 
ENDROOT
BRANCH   1   6
HETATM    6  C   UNL     1      61.746   9.465   3.344  1.00  0.00     0.105 C 
HETATM    7  S   UNL     1      61.832  11.020   2.759  1.00  0.00    -0.060 SA
HETATM    8  N   UNL     1      60.541   8.823   3.374  1.00  0.00    -0.390 N 
HETATM    9  H   UNL     1      60.482   7.903   3.719  1.00  0.00     0.157 HD
HETATM   10  H   UNL     1      59.732   9.281   3.050  1.00  0.00     0.157 HD
ENDBRANCH   1   6
TORSDOF 1
ENDMDL
MODEL 7
REMARK VINA RESULT:      -2.9      2.997      3.395
REMARK  1 active torsions:
REMARK  status: ('A' for Active; 'I' for Inactive)
REMARK    1  A    between atoms: C_1  and  C_2 
ROOT
HETATM    1  C   UNL     1      64.835   7.955   4.837  1.00  0.00     0.008 A 
HETATM    2  S   UNL     1      63.069   7.677   2.942  1.00  0.00    -0.113 SA
HETATM    3  C   UNL     1      64.445   7.124   3.795  1.00  0.00     0.064 A 
HETATM    4  C   UNL     1      63.931   9.083   4.895  1.00  0.00     0.022 A 
HETATM    5  C   UNL     1      62.942   9.052   3.938  1.00  0.00     0.050 A 
ENDROOT
BRANCH   1   6
HETATM    6  C   UNL     1      65.984   7.691   5.708  1.00  0.00     0.105 C 
HETATM    7  S   UNL     1      67.535   7.678   5.107  1.00  0.00    -0.060 SA
HETATM    8  N   UNL     1      65.774   7.452   7.036  1.00  0.00    -0.390 N 
HETATM    9  H   UNL     1      64.860   7.459   7.399  1.00  0.00     0.157 HD
HETATM   10  H   UNL     1      66.539   7.275   7.630  1.00  0.00     0.157 HD
ENDBRANCH   1   6
TORSDOF 1
ENDMDL
MODEL 8
REMARK VINA RESULT:      -2.9     12.434     13.554
REMARK  1 active torsions:
REMARK  status: ('A' for Active; 'I' for Inactive)
REMARK    1  A    between atoms: C_1  and  C_2 
ROOT
HETATM    1  C   UNL     1      56.740   2.223  13.165  1.00  0.00     0.008 A 
HETATM    2  S   UNL     1      59.271   1.607  13.210  1.00  0.00    -0.113 SA
HETATM    3  C   UNL     1      57.729   1.647  13.951  1.00  0.00     0.064 A 
HETATM    4  C   UNL     1      57.325   2.632  11.907  1.00  0.00     0.022 A 
HETATM    5  C   UNL     1      58.670   2.358  11.805  1.00  0.00     0.050 A 
ENDROOT
BRANCH   1   6
HETATM    6  C   UNL     1      55.344   2.370  13.585  1.00  0.00     0.105 C 
HETATM    7  S   UNL     1      54.096   1.825  12.629  1.00  0.00    -0.060 SA
HETATM    8  N   UNL     1      55.064   2.966  14.781  1.00  0.00    -0.390 N 
HETATM    9  H   UNL     1      55.797   3.290  15.352  1.00  0.00     0.157 HD
HETATM   10  H   UNL     1      54.129   3.069  15.073  1.00  0.00     0.157 HD
ENDBRANCH   1   6
TORSDOF 1
ENDMDL
MODEL 9
REMARK VINA RESULT:      -2.8      2.295      2.848
REMARK  1 active torsions:
REMARK  status: ('A' for Active; 'I' for Inactive)
REMARK    1  A    between atoms: C_1  and  C_2 
ROOT
HETATM    1  C   UNL     1      61.804   9.153   2.880  1.00  0.00     0.008 A 
HETATM    2  S   UNL     1      61.982   7.014   1.403  1.00  0.00    -0.113 SA
HETATM    3  C   UNL     1      62.343   8.660   1.699  1.00  0.00     0.064 A 
HETATM    4  C   UNL     1      61.070   8.091   3.534  1.00  0.00     0.022 A 
HETATM    5  C   UNL     1      61.090   6.897   2.848  1.00  0.00     0.050 A 
ENDROOT
BRANCH   1   6
HETATM    6  C   UNL     1      61.976  10.531   3.347  1.00  0.00     0.105 C 
HETATM    7  S   UNL     1      62.591  10.857   4.858  1.00  0.00    -0.060 SA
HETATM    8  N   UNL     1      61.625  11.564   2.526  1.00  0.00    -0.390 N 
HETATM    9  H   UNL     1      61.262  11.379   1.630  1.00  0.00     0.157 HD
HETATM   10  H   UNL     1      61.738  12.494   2.829  1.00  0.00     0.157 HD
ENDBRANCH   1   6
TORSDOF 1
ENDMDL
