MODEL 1
REMARK VINA RESULT:      -5.0      0.000      0.000
REMARK  2 active torsions:
REMARK  status: ('A' for Active; 'I' for Inactive)
REMARK    1  A    between atoms: N_1  and  C_4 
REMARK    2  A    between atoms: C_7  and  N_9 
ROOT
HETATM    1  C   UNL     1      63.231   9.281   4.506  1.00  0.00     0.082 A 
HETATM    2  C   UNL     1      62.890  10.571   4.966  1.00  0.00     0.054 A 
HETATM    3  C   UNL     1      62.843   8.874   3.215  1.00  0.00     0.034 A 
HETATM    4  C   UNL     1      62.070  11.373   4.156  1.00  0.00     0.031 A 
HETATM    5  C   UNL     1      62.080   9.717   2.404  1.00  0.00     0.002 A 
HETATM    6  C   UNL     1      61.681  10.959   2.881  1.00  0.00     0.002 A 
ENDROOT
BRANCH   1   7
HETATM    7  N   UNL     1      63.981   8.379   5.320  1.00  0.00    -0.266 N 
HETATM    8  N   UNL     1      63.378   7.531   6.206  1.00  0.00    -0.305 N 
HETATM    9  C   UNL     1      64.383   6.857   6.766  1.00  0.00     0.109 A 
ATOM     10  HN  UNL     1      62.381   7.436   6.397  1.00  0.00     0.186 HD
HETATM   11  C   UNL     1      65.634   7.233   6.264  1.00  0.00     0.038 A 
HETATM   12  C   UNL     1      65.355   8.223   5.352  1.00  0.00     0.118 A 
ENDBRANCH   1   7
BRANCH   2  13
HETATM   13  N   UNL     1      63.101  10.989   6.294  1.00  0.00    -0.397 N 
HETATM   14  H   UNL     1      63.204  11.947   6.498  1.00  0.00     0.156 HD
HETATM   15  H   UNL     1      63.147  10.323   7.018  1.00  0.00     0.156 HD
ENDBRANCH   2  13
TORSDOF 2
ENDMDL
MODEL 2
REMARK VINA RESULT:      -4.8      0.945      2.015
REMARK  2 active torsions:
REMARK  status: ('A' for Active; 'I' for Inactive)
REMARK    1  A    between atoms: N_1  and  C_4 
REMARK    2  A    between atoms: C_7  and  N_9 
ROOT
HETATM    1  C   UNL     1      63.384   9.134   4.714  1.00  0.00     0.082 A 
HETATM    2  C   UNL     1      62.883   8.759   3.449  1.00  0.00     0.054 A 
HETATM    3  C   UNL     1      63.052  10.392   5.252  1.00  0.00     0.034 A 
HETATM    4  C   UNL     1      62.153   9.706   2.713  1.00  0.00     0.031 A 
HETATM    5  C   UNL     1      62.271  11.292   4.524  1.00  0.00     0.002 A 
HETATM    6  C   UNL     1      61.836  10.955   3.249  1.00  0.00     0.002 A 
ENDROOT
BRANCH   1   7
HETATM    7  N   UNL     1      64.213   8.254   5.473  1.00  0.00    -0.266 N 
HETATM    8  N   UNL     1      63.697   7.388   6.394  1.00  0.00    -0.305 N 
HETATM    9  C   UNL     1      64.756   6.743   6.884  1.00  0.00     0.109 A 
ATOM     10  HN  UNL     1      62.717   7.261   6.650  1.00  0.00     0.186 HD
HETATM   11  C   UNL     1      65.960   7.158   6.302  1.00  0.00     0.038 A 
HETATM   12  C   UNL     1      65.591   8.140   5.414  1.00  0.00     0.118 A 
ENDBRANCH   1   7
BRANCH   2  13
HETATM   13  N   UNL     1      63.298   7.592   2.778  1.00  0.00    -0.397 N 
HETATM   14  H   UNL     1      63.030   6.708   3.117  1.00  0.00     0.156 HD
HETATM   15  H   UNL     1      63.857   7.662   1.971  1.00  0.00     0.156 HD
ENDBRANCH   2  13
TORSDOF 2
ENDMDL
MODEL 3
REMARK VINA RESULT:      -4.2      2.044      2.209
REMARK  2 active torsions:
REMARK  status: ('A' for Active; 'I' for Inactive)
REMARK    1  A    between atoms: N_1  and  C_4 
REMARK    2  A    between atoms: C_7  and  N_9 
ROOT
HETATM    1  C   UNL     1      62.663   8.794   3.281  1.00  0.00     0.082 A 
HETATM    2  C   UNL     1      62.709   9.677   4.382  1.00  0.00     0.054 A 
HETATM    3  C   UNL     1      62.262   9.272   2.019  1.00  0.00     0.034 A 
HETATM    4  C   UNL     1      62.242  10.989   4.204  1.00  0.00     0.031 A 
HETATM    5  C   UNL     1      61.861  10.600   1.856  1.00  0.00     0.002 A 
HETATM    6  C   UNL     1      61.836  11.453   2.952  1.00  0.00     0.002 A 
ENDROOT
BRANCH   1   7
HETATM    7  N   UNL     1      63.033   7.423   3.416  1.00  0.00    -0.266 N 
HETATM    8  N   UNL     1      62.112   6.446   3.671  1.00  0.00    -0.305 N 
HETATM    9  C   UNL     1      62.821   5.318   3.723  1.00  0.00     0.109 A 
ATOM     10  HN  UNL     1      61.105   6.556   3.793  1.00  0.00     0.186 HD
HETATM   11  C   UNL     1      64.187   5.525   3.501  1.00  0.00     0.038 A 
HETATM   12  C   UNL     1      64.304   6.883   3.325  1.00  0.00     0.118 A 
ENDBRANCH   1   7
BRANCH   2  13
HETATM   13  N   UNL     1      62.944   9.243   5.701  1.00  0.00    -0.397 N 
HETATM   14  H   UNL     1      62.195   9.165   6.334  1.00  0.00     0.156 HD
HETATM   15  H   UNL     1      63.858   9.017   5.988  1.00  0.00     0.156 HD
ENDBRANCH   2  13
TORSDOF 2
ENDMDL
MODEL 4
REMARK VINA RESULT:      -4.1      2.625      6.245
REMARK  2 active torsions:
REMARK  status: ('A' for Active; 'I' for Inactive)
REMARK    1  A    between atoms: N_1  and  C_4 
REMARK    2  A    between atoms: C_7  and  N_9 
ROOT
HETATM    1  C   UNL     1      66.287   6.483   7.139  1.00  0.00     0.082 A 
HETATM    2  C   UNL     1      66.846   5.318   6.571  1.00  0.00     0.054 A 
HETATM    3  C   UNL     1      66.679   6.887   8.430  1.00  0.00     0.034 A 
HETATM    4  C   UNL     1      67.699   4.532   7.362  1.00  0.00     0.031 A 
HETATM    5  C   UNL     1      67.578   6.119   9.173  1.00  0.00     0.002 A 
HETATM    6  C   UNL     1      68.075   4.934   8.645  1.00  0.00     0.002 A 
ENDROOT
BRANCH   1   7
HETATM    7  N   UNL     1      65.340   7.274   6.424  1.00  0.00    -0.266 N 
HETATM    8  N   UNL     1      63.993   7.139   6.613  1.00  0.00    -0.305 N 
HETATM    9  C   UNL     1      63.444   8.033   5.790  1.00  0.00     0.109 A 
ATOM     10  HN  UNL     1      63.514   6.497   7.244  1.00  0.00     0.186 HD
HETATM   11  C   UNL     1      64.396   8.761   5.067  1.00  0.00     0.038 A 
HETATM   12  C   UNL     1      65.604   8.246   5.475  1.00  0.00     0.118 A 
ENDBRANCH   1   7
BRANCH   2  13
HETATM   13  N   UNL     1      66.390   4.764   5.359  1.00  0.00    -0.397 N 
HETATM   14  H   UNL     1      66.895   4.038   4.928  1.00  0.00     0.156 HD
HETATM   15  H   UNL     1      65.565   5.105   4.943  1.00  0.00     0.156 HD
ENDBRANCH   2  13
TORSDOF 2
ENDMDL
MODEL 5
REMARK VINA RESULT:      -4.1      3.065      4.806
REMARK  2 active torsions:
REMARK  status: ('A' for Active; 'I' for Inactive)
REMARK    1  A    between atoms: N_1  and  C_4 
REMARK    2  A    between atoms: C_7  and  N_9 
ROOT
HETATM    1  C   UNL     1      61.549   8.625   3.227  1.00  0.00     0.082 A 
HETATM    2  C   UNL     1      61.854   9.978   3.489  1.00  0.00     0.054 A 
HETATM    3  C   UNL     1      62.125   7.613   4.019  1.00  0.00     0.034 A 
HETATM    4  C   UNL     1      62.816  10.268   4.470  1.00  0.00     0.031 A 
HETATM    5  C   UNL     1      63.033   7.933   5.030  1.00  0.00     0.002 A 
HETATM    6  C   UNL     1      63.390   9.258   5.244  1.00  0.00     0.002 A 
ENDROOT
BRANCH   1   7
HETATM    7  N   UNL     1      60.652   8.258   2.180  1.00  0.00    -0.266 N 
HETATM    8  N   UNL     1      59.317   8.068   2.403  1.00  0.00    -0.305 N 
HETATM    9  C   UNL     1      58.816   7.746   1.210  1.00  0.00     0.109 A 
ATOM     10  HN  UNL     1      58.815   8.154   3.287  1.00  0.00     0.186 HD
HETATM   11  C   UNL     1      59.787   7.727   0.202  1.00  0.00     0.038 A 
HETATM   12  C   UNL     1      60.960   8.039   0.849  1.00  0.00     0.118 A 
ENDBRANCH   1   7
BRANCH   2  13
HETATM   13  N   UNL     1      61.447  11.030   2.646  1.00  0.00    -0.397 N 
HETATM   14  H   UNL     1      60.987  10.833   1.799  1.00  0.00     0.156 HD
HETATM   15  H   UNL     1      61.623  11.964   2.905  1.00  0.00     0.156 HD
ENDBRANCH   2  13
TORSDOF 2
ENDMDL
MODEL 6
REMARK VINA RESULT:      -4.1      1.405      4.959
REMARK  2 active torsions:
REMARK  status: ('A' for Active; 'I' for Inactive)
REMARK    1  A    between atoms: N_1  and  C_4 
REMARK    2  A    between atoms: C_7  and  N_9 
ROOT
HETATM    1  C   UNL     1      65.414   7.605   5.313  1.00  0.00     0.082 A 
HETATM    2  C   UNL     1      65.186   6.404   6.019  1.00  0.00     0.054 A 
HETATM    3  C   UNL     1      66.728   7.969   4.961  1.00  0.00     0.034 A 
HETATM    4  C   UNL     1      66.297   5.661   6.449  1.00  0.00     0.031 A 
HETATM    5  C   UNL     1      67.812   7.179   5.348  1.00  0.00     0.002 A 
HETATM    6  C   UNL     1      67.597   6.034   6.105  1.00  0.00     0.002 A 
ENDROOT
BRANCH   1   7
HETATM    7  N   UNL     1      64.334   8.455   4.930  1.00  0.00    -0.266 N 
HETATM    8  N   UNL     1      63.971   9.543   5.673  1.00  0.00    -0.305 N 
HETATM    9  C   UNL     1      62.947  10.080   5.009  1.00  0.00     0.109 A 
ATOM     10  HN  UNL     1      64.390   9.872   6.543  1.00  0.00     0.186 HD
HETATM   11  C   UNL     1      62.631   9.378   3.840  1.00  0.00     0.038 A 
HETATM   12  C   UNL     1      63.520   8.329   3.819  1.00  0.00     0.118 A 
ENDBRANCH   1   7
BRANCH   2  13
HETATM   13  N   UNL     1      63.927   6.053   6.543  1.00  0.00    -0.397 N 
HETATM   14  H   UNL     1      63.401   6.714   7.048  1.00  0.00     0.156 HD
HETATM   15  H   UNL     1      63.572   5.144   6.403  1.00  0.00     0.156 HD
ENDBRANCH   2  13
TORSDOF 2
ENDMDL
MODEL 7
REMARK VINA RESULT:      -4.0      2.070      4.442
REMARK  2 active torsions:
REMARK  status: ('A' for Active; 'I' for Inactive)
REMARK    1  A    between atoms: N_1  and  C_4 
REMARK    2  A    between atoms: C_7  and  N_9 
ROOT
HETATM    1  C   UNL     1      62.078   8.252   4.404  1.00  0.00     0.082 A 
HETATM    2  C   UNL     1      63.072   8.253   5.407  1.00  0.00     0.054 A 
HETATM    3  C   UNL     1      61.115   7.225   4.377  1.00  0.00     0.034 A 
HETATM    4  C   UNL     1      63.135   7.160   6.285  1.00  0.00     0.031 A 
HETATM    5  C   UNL     1      61.164   6.180   5.303  1.00  0.00     0.002 A 
HETATM    6  C   UNL     1      62.183   6.140   6.246  1.00  0.00     0.002 A 
ENDROOT
BRANCH   1   7
HETATM    7  N   UNL     1      62.016   9.284   3.421  1.00  0.00    -0.266 N 
HETATM    8  N   UNL     1      61.665  10.566   3.738  1.00  0.00    -0.305 N 
HETATM    9  C   UNL     1      61.725  11.229   2.582  1.00  0.00     0.109 A 
ATOM     10  HN  UNL     1      61.412  10.935   4.655  1.00  0.00     0.186 HD
HETATM   11  C   UNL     1      62.116  10.417   1.511  1.00  0.00     0.038 A 
HETATM   12  C   UNL     1      62.279   9.170   2.068  1.00  0.00     0.118 A 
ENDBRANCH   1   7
BRANCH   2  13
HETATM   13  N   UNL     1      64.157   9.151   5.405  1.00  0.00    -0.397 N 
HETATM   14  H   UNL     1      64.902   9.021   4.775  1.00  0.00     0.156 HD
HETATM   15  H   UNL     1      64.170   9.907   6.036  1.00  0.00     0.156 HD
ENDBRANCH   2  13
TORSDOF 2
ENDMDL
MODEL 8
REMARK VINA RESULT:      -4.0      3.243      4.631
REMARK  2 active torsions:
REMARK  status: ('A' for Active; 'I' for Inactive)
REMARK    1  A    between atoms: N_1  and  C_4 
REMARK    2  A    between atoms: C_7  and  N_9 
ROOT
HETATM    1  C   UNL     1      65.906   6.755   6.782  1.00  0.00     0.082 A 
HETATM    2  C   UNL     1      66.403   7.641   5.802  1.00  0.00     0.054 A 
HETATM    3  C   UNL     1      64.520   6.521   6.872  1.00  0.00     0.034 A 
HETATM    4  C   UNL     1      65.482   8.352   5.015  1.00  0.00     0.031 A 
HETATM    5  C   UNL     1      63.629   7.195   6.035  1.00  0.00     0.002 A 
HETATM    6  C   UNL     1      64.109   8.121   5.118  1.00  0.00     0.002 A 
ENDROOT
BRANCH   1   7
HETATM    7  N   UNL     1      66.783   6.074   7.678  1.00  0.00    -0.266 N 
HETATM    8  N   UNL     1      67.319   4.853   7.379  1.00  0.00    -0.305 N 
HETATM    9  C   UNL     1      68.075   4.548   8.434  1.00  0.00     0.109 A 
ATOM     10  HN  UNL     1      67.173   4.299   6.535  1.00  0.00     0.186 HD
HETATM   11  C   UNL     1      68.057   5.542   9.419  1.00  0.00     0.038 A 
HETATM   12  C   UNL     1      67.208   6.502   8.923  1.00  0.00     0.118 A 
ENDBRANCH   1   7
BRANCH   2  13
HETATM   13  N   UNL     1      67.751   8.048   5.752  1.00  0.00    -0.397 N 
HETATM   14  H   UNL     1      68.188   8.197   4.883  1.00  0.00     0.156 HD
HETATM   15  H   UNL     1      68.255   8.181   6.587  1.00  0.00     0.156 HD
ENDBRANCH   2  13
TORSDOF 2
ENDMDL
MODEL 9
REMARK VINA RESULT:      -3.7      2.267      3.231
REMARK  2 active torsions:
REMARK  status: ('A' for Active; 'I' for Inactive)
REMARK    1  A    between atoms: N_1  and  C_4 
REMARK    2  A    between atoms: C_7  and  N_9 
ROOT
HETATM    1  C   UNL     1      64.392   7.413   5.659  1.00  0.00     0.082 A 
HETATM    2  C   UNL     1      63.203   6.655   5.729  1.00  0.00     0.054 A 
HETATM    3  C   UNL     1      64.402   8.634   4.958  1.00  0.00     0.034 A 
HETATM    4  C   UNL     1      62.089   7.093   4.996  1.00  0.00     0.031 A 
HETATM    5  C   UNL     1      63.260   9.078   4.288  1.00  0.00     0.002 A 
HETATM    6  C   UNL     1      62.109   8.300   4.294  1.00  0.00     0.002 A 
ENDROOT
BRANCH   1   7
HETATM    7  N   UNL     1      65.588   6.974   6.303  1.00  0.00    -0.266 N 
HETATM    8  N   UNL     1      65.776   7.105   7.650  1.00  0.00    -0.305 N 
HETATM    9  C   UNL     1      66.984   6.588   7.875  1.00  0.00     0.109 A 
ATOM     10  HN  UNL     1      65.134   7.509   8.332  1.00  0.00     0.186 HD
HETATM   11  C   UNL     1      67.596   6.112   6.709  1.00  0.00     0.038 A 
HETATM   12  C   UNL     1      66.692   6.386   5.711  1.00  0.00     0.118 A 
ENDBRANCH   1   7
BRANCH   2  13
HETATM   13  N   UNL     1      63.155   5.357   6.272  1.00  0.00    -0.397 N 
HETATM   14  H   UNL     1      63.792   5.093   6.975  1.00  0.00     0.156 HD
HETATM   15  H   UNL     1      62.485   4.712   5.947  1.00  0.00     0.156 HD
ENDBRANCH   2  13
TORSDOF 2
ENDMDL
