MODEL 1
REMARK VINA RESULT:      -4.2      0.000      0.000
REMARK  3 active torsions:
REMARK  status: ('A' for Active; 'I' for Inactive)
REMARK    1  A    between atoms: C_1  and  O_8 
REMARK    2  A    between atoms: N_2  and  C_9 
REMARK    3  A    between atoms: C_3  and  C_9 
ROOT
HETATM    1  C   UNL     1      62.148  10.841   3.740  1.00  0.00     0.068 A 
HETATM    2  C   UNL     1      62.169   9.055   1.559  1.00  0.00    -0.033 A 
HETATM    3  C   UNL     1      61.809  11.287   2.464  1.00  0.00     0.037 A 
HETATM    4  C   UNL     1      62.510   9.506   3.921  1.00  0.00     0.037 A 
HETATM    5  C   UNL     1      61.819  10.399   1.381  1.00  0.00     0.011 A 
HETATM    6  C   UNL     1      62.527   8.619   2.842  1.00  0.00     0.011 A 
ENDROOT
BRANCH   2   7
HETATM    7  C   UNL     1      62.164   8.098   0.387  1.00  0.00     0.270 C 
BRANCH   7   8
HETATM    8  N   UNL     1      61.141   7.064   0.547  1.00  0.00    -0.075 N 
HETATM    9  C   UNL     1      59.823   7.571   0.202  1.00  0.00     0.267 C 
HETATM   10  H   UNL     1      61.134   6.751   1.518  1.00  0.00     0.277 HD
HETATM   11  H   UNL     1      61.364   6.289  -0.078  1.00  0.00     0.277 HD
ENDBRANCH   7   8
ENDBRANCH   2   7
BRANCH   1  12
HETATM   12  O   UNL     1      62.171  11.602   4.878  1.00  0.00    -0.356 OA
HETATM   13  C   UNL     1      63.060  11.188   5.906  1.00  0.00     0.210 C 
ENDBRANCH   1  12
TORSDOF 3
ENDMDL
MODEL 2
REMARK VINA RESULT:      -4.2      3.131      4.618
REMARK  3 active torsions:
REMARK  status: ('A' for Active; 'I' for Inactive)
REMARK    1  A    between atoms: C_1  and  O_8 
REMARK    2  A    between atoms: N_2  and  C_9 
REMARK    3  A    between atoms: C_3  and  C_9 
ROOT
HETATM    1  C   UNL     1      62.235  10.322   3.721  1.00  0.00     0.068 A 
HETATM    2  C   UNL     1      63.724   8.194   4.816  1.00  0.00    -0.033 A 
HETATM    3  C   UNL     1      62.422   9.149   2.993  1.00  0.00     0.037 A 
HETATM    4  C   UNL     1      62.804  10.435   4.990  1.00  0.00     0.037 A 
HETATM    5  C   UNL     1      63.161   8.092   3.538  1.00  0.00     0.011 A 
HETATM    6  C   UNL     1      63.548   9.385   5.533  1.00  0.00     0.011 A 
ENDROOT
BRANCH   2   7
HETATM    7  C   UNL     1      64.510   7.042   5.404  1.00  0.00     0.270 C 
BRANCH   7   8
HETATM    8  N   UNL     1      64.551   7.116   6.865  1.00  0.00    -0.075 N 
HETATM    9  C   UNL     1      65.865   6.753   7.372  1.00  0.00     0.267 C 
HETATM   10  H   UNL     1      63.857   6.474   7.250  1.00  0.00     0.277 HD
HETATM   11  H   UNL     1      64.349   8.075   7.147  1.00  0.00     0.277 HD
ENDBRANCH   7   8
ENDBRANCH   2   7
BRANCH   1  12
HETATM   12  O   UNL     1      61.530  11.421   3.308  1.00  0.00    -0.356 OA
HETATM   13  C   UNL     1      61.729  11.839   1.964  1.00  0.00     0.210 C 
ENDBRANCH   1  12
TORSDOF 3
ENDMDL
MODEL 3
REMARK VINA RESULT:      -4.0      2.146      2.605
REMARK  3 active torsions:
REMARK  status: ('A' for Active; 'I' for Inactive)
REMARK    1  A    between atoms: C_1  and  O_8 
REMARK    2  A    between atoms: N_2  and  C_9 
REMARK    3  A    between atoms: C_3  and  C_9 
ROOT
HETATM    1  C   UNL     1      63.795   8.669   5.000  1.00  0.00     0.068 A 
HETATM    2  C   UNL     1      62.262   9.065   2.668  1.00  0.00    -0.033 A 
HETATM    3  C   UNL     1      63.000   9.806   4.868  1.00  0.00     0.037 A 
HETATM    4  C   UNL     1      63.833   7.739   3.962  1.00  0.00     0.037 A 
HETATM    5  C   UNL     1      62.239  10.001   3.709  1.00  0.00     0.011 A 
HETATM    6  C   UNL     1      63.080   7.935   2.801  1.00  0.00     0.011 A 
ENDROOT
BRANCH   2   7
HETATM    7  C   UNL     1      61.426   9.276   1.424  1.00  0.00     0.270 C 
BRANCH   7   8
HETATM    8  N   UNL     1      60.097   8.683   1.569  1.00  0.00    -0.075 N 
HETATM    9  C   UNL     1      59.720   7.942   0.376  1.00  0.00     0.267 C 
HETATM   10  H   UNL     1      59.416   9.427   1.727  1.00  0.00     0.277 HD
HETATM   11  H   UNL     1      60.114   8.038   2.359  1.00  0.00     0.277 HD
ENDBRANCH   7   8
ENDBRANCH   2   7
BRANCH   1  12
HETATM   12  O   UNL     1      64.578   8.357   6.080  1.00  0.00    -0.356 OA
HETATM   13  C   UNL     1      65.952   8.103   5.822  1.00  0.00     0.210 C 
ENDBRANCH   1  12
TORSDOF 3
ENDMDL
MODEL 4
REMARK VINA RESULT:      -3.9      3.360      4.290
REMARK  3 active torsions:
REMARK  status: ('A' for Active; 'I' for Inactive)
REMARK    1  A    between atoms: C_1  and  O_8 
REMARK    2  A    between atoms: N_2  and  C_9 
REMARK    3  A    between atoms: C_3  and  C_9 
ROOT
HETATM    1  C   UNL     1      65.202   7.422   4.660  1.00  0.00     0.068 A 
HETATM    2  C   UNL     1      62.938   8.597   3.460  1.00  0.00    -0.033 A 
HETATM    3  C   UNL     1      64.694   8.624   5.148  1.00  0.00     0.037 A 
HETATM    4  C   UNL     1      64.586   6.816   3.565  1.00  0.00     0.037 A 
HETATM    5  C   UNL     1      63.569   9.207   4.551  1.00  0.00     0.011 A 
HETATM    6  C   UNL     1      63.468   7.398   2.963  1.00  0.00     0.011 A 
ENDROOT
BRANCH   2   7
HETATM    7  C   UNL     1      61.715   9.226   2.829  1.00  0.00     0.270 C 
BRANCH   7   8
HETATM    8  N   UNL     1      61.578  10.631   3.214  1.00  0.00    -0.075 N 
HETATM    9  C   UNL     1      61.781  11.509   2.073  1.00  0.00     0.267 C 
HETATM   10  H   UNL     1      62.273  10.849   3.929  1.00  0.00     0.277 HD
HETATM   11  H   UNL     1      60.635  10.778   3.573  1.00  0.00     0.277 HD
ENDBRANCH   7   8
ENDBRANCH   2   7
BRANCH   1  12
HETATM   12  O   UNL     1      66.286   6.747   5.155  1.00  0.00    -0.356 OA
HETATM   13  C   UNL     1      67.506   7.471   5.237  1.00  0.00     0.210 C 
ENDBRANCH   1  12
TORSDOF 3
ENDMDL
MODEL 5
REMARK VINA RESULT:      -3.6     13.651     14.588
REMARK  3 active torsions:
REMARK  status: ('A' for Active; 'I' for Inactive)
REMARK    1  A    between atoms: C_1  and  O_8 
REMARK    2  A    between atoms: N_2  and  C_9 
REMARK    3  A    between atoms: C_3  and  C_9 
ROOT
HETATM    1  C   UNL     1      59.356   1.212  13.087  1.00  0.00     0.068 A 
HETATM    2  C   UNL     1      56.615   1.722  13.507  1.00  0.00    -0.033 A 
HETATM    3  C   UNL     1      58.693   2.168  12.317  1.00  0.00     0.037 A 
HETATM    4  C   UNL     1      58.645   0.504  14.055  1.00  0.00     0.037 A 
HETATM    5  C   UNL     1      57.332   2.420  12.528  1.00  0.00     0.011 A 
HETATM    6  C   UNL     1      57.285   0.750  14.263  1.00  0.00     0.011 A 
ENDROOT
BRANCH   2   7
HETATM    7  C   UNL     1      55.148   2.010  13.738  1.00  0.00     0.270 C 
BRANCH   7   8
HETATM    8  N   UNL     1      54.964   3.125  14.668  1.00  0.00    -0.075 N 
HETATM    9  C   UNL     1      54.407   4.286  13.992  1.00  0.00     0.267 C 
HETATM   10  H   UNL     1      55.867   3.375  15.071  1.00  0.00     0.277 HD
HETATM   11  H   UNL     1      54.314   2.833  15.398  1.00  0.00     0.277 HD
ENDBRANCH   7   8
ENDBRANCH   2   7
BRANCH   1  12
HETATM   12  O   UNL     1      60.680   0.877  12.986  1.00  0.00    -0.356 OA
HETATM   13  C   UNL     1      60.983  -0.336  12.312  1.00  0.00     0.210 C 
ENDBRANCH   1  12
TORSDOF 3
ENDMDL
MODEL 6
REMARK VINA RESULT:      -3.6      4.687      6.206
REMARK  3 active torsions:
REMARK  status: ('A' for Active; 'I' for Inactive)
REMARK    1  A    between atoms: C_1  and  O_8 
REMARK    2  A    between atoms: N_2  and  C_9 
REMARK    3  A    between atoms: C_3  and  C_9 
ROOT
HETATM    1  C   UNL     1      63.075   8.468   5.014  1.00  0.00     0.068 A 
HETATM    2  C   UNL     1      65.168   7.088   6.305  1.00  0.00    -0.033 A 
HETATM    3  C   UNL     1      64.391   8.910   4.887  1.00  0.00     0.037 A 
HETATM    4  C   UNL     1      62.807   7.345   5.797  1.00  0.00     0.037 A 
HETATM    5  C   UNL     1      65.430   8.224   5.528  1.00  0.00     0.011 A 
HETATM    6  C   UNL     1      63.841   6.662   6.443  1.00  0.00     0.011 A 
ENDROOT
BRANCH   2   7
HETATM    7  C   UNL     1      66.298   6.344   6.982  1.00  0.00     0.270 C 
BRANCH   7   8
HETATM    8  N   UNL     1      67.014   7.204   7.924  1.00  0.00    -0.075 N 
HETATM    9  C   UNL     1      67.111   6.582   9.235  1.00  0.00     0.267 C 
HETATM   10  H   UNL     1      66.515   8.090   8.012  1.00  0.00     0.277 HD
HETATM   11  H   UNL     1      67.958   7.358   7.568  1.00  0.00     0.277 HD
ENDBRANCH   7   8
ENDBRANCH   2   7
BRANCH   1  12
HETATM   12  O   UNL     1      61.975   9.042   4.436  1.00  0.00    -0.356 OA
HETATM   13  C   UNL     1      62.105  10.394   4.018  1.00  0.00     0.210 C 
ENDBRANCH   1  12
TORSDOF 3
ENDMDL
MODEL 7
REMARK VINA RESULT:      -3.4      4.637      5.779
REMARK  3 active torsions:
REMARK  status: ('A' for Active; 'I' for Inactive)
REMARK    1  A    between atoms: C_1  and  O_8 
REMARK    2  A    between atoms: N_2  and  C_9 
REMARK    3  A    between atoms: C_3  and  C_9 
ROOT
HETATM    1  C   UNL     1      66.243   6.985   6.611  1.00  0.00     0.068 A 
HETATM    2  C   UNL     1      63.830   7.862   5.448  1.00  0.00    -0.033 A 
HETATM    3  C   UNL     1      65.032   6.400   6.981  1.00  0.00     0.037 A 
HETATM    4  C   UNL     1      66.244   8.015   5.671  1.00  0.00     0.037 A 
HETATM    5  C   UNL     1      63.835   6.837   6.401  1.00  0.00     0.011 A 
HETATM    6  C   UNL     1      65.049   8.457   5.097  1.00  0.00     0.011 A 
ENDROOT
BRANCH   2   7
HETATM    7  C   UNL     1      62.533   8.318   4.816  1.00  0.00     0.270 C 
BRANCH   7   8
HETATM    8  N   UNL     1      62.776   9.238   3.704  1.00  0.00    -0.075 N 
HETATM    9  C   UNL     1      62.053  10.486   3.887  1.00  0.00     0.267 C 
HETATM   10  H   UNL     1      62.468   8.799   2.836  1.00  0.00     0.277 HD
HETATM   11  H   UNL     1      63.774   9.444   3.667  1.00  0.00     0.277 HD
ENDBRANCH   7   8
ENDBRANCH   2   7
BRANCH   1  12
HETATM   12  O   UNL     1      67.479   6.647   7.095  1.00  0.00    -0.356 OA
HETATM   13  C   UNL     1      67.789   5.261   7.144  1.00  0.00     0.210 C 
ENDBRANCH   1  12
TORSDOF 3
ENDMDL
MODEL 8
REMARK VINA RESULT:      -3.4      3.481      5.055
REMARK  3 active torsions:
REMARK  status: ('A' for Active; 'I' for Inactive)
REMARK    1  A    between atoms: C_1  and  O_8 
REMARK    2  A    between atoms: N_2  and  C_9 
REMARK    3  A    between atoms: C_3  and  C_9 
ROOT
HETATM    1  C   UNL     1      62.197   8.617   2.649  1.00  0.00     0.068 A 
HETATM    2  C   UNL     1      64.339   7.881   4.328  1.00  0.00    -0.033 A 
HETATM    3  C   UNL     1      62.535   9.410   3.745  1.00  0.00     0.037 A 
HETATM    4  C   UNL     1      62.922   7.451   2.403  1.00  0.00     0.037 A 
HETATM    5  C   UNL     1      63.600   9.044   4.577  1.00  0.00     0.011 A 
HETATM    6  C   UNL     1      63.980   7.080   3.236  1.00  0.00     0.011 A 
ENDROOT
BRANCH   2   7
HETATM    7  C   UNL     1      65.497   7.499   5.224  1.00  0.00     0.270 C 
BRANCH   7   8
HETATM    8  N   UNL     1      65.163   7.685   6.636  1.00  0.00    -0.075 N 
HETATM    9  C   UNL     1      65.473   6.495   7.410  1.00  0.00     0.267 C 
HETATM   10  H   UNL     1      64.165   7.885   6.718  1.00  0.00     0.277 HD
HETATM   11  H   UNL     1      65.716   8.461   7.000  1.00  0.00     0.277 HD
ENDBRANCH   7   8
ENDBRANCH   2   7
BRANCH   1  12
HETATM   12  O   UNL     1      61.188   8.866   1.758  1.00  0.00    -0.356 OA
HETATM   13  C   UNL     1      60.155   7.894   1.674  1.00  0.00     0.210 C 
ENDBRANCH   1  12
TORSDOF 3
ENDMDL
MODEL 9
REMARK VINA RESULT:      -3.1     14.410     15.304
REMARK  3 active torsions:
REMARK  status: ('A' for Active; 'I' for Inactive)
REMARK    1  A    between atoms: C_1  and  O_8 
REMARK    2  A    between atoms: N_2  and  C_9 
REMARK    3  A    between atoms: C_3  and  C_9 
ROOT
HETATM    1  C   UNL     1      59.210  -0.123  13.407  1.00  0.00     0.068 A 
HETATM    2  C   UNL     1      56.933   1.517  13.686  1.00  0.00    -0.033 A 
HETATM    3  C   UNL     1      59.308   1.254  13.213  1.00  0.00     0.037 A 
HETATM    4  C   UNL     1      57.972  -0.679  13.728  1.00  0.00     0.037 A 
HETATM    5  C   UNL     1      58.177   2.067  13.352  1.00  0.00     0.011 A 
HETATM    6  C   UNL     1      56.840   0.129  13.861  1.00  0.00     0.011 A 
ENDROOT
BRANCH   2   7
HETATM    7  C   UNL     1      55.718   2.403  13.848  1.00  0.00     0.270 C 
BRANCH   7   8
HETATM    8  N   UNL     1      54.875   1.955  14.957  1.00  0.00    -0.075 N 
HETATM    9  C   UNL     1      53.506   1.734  14.519  1.00  0.00     0.267 C 
HETATM   10  H   UNL     1      54.880   2.667  15.688  1.00  0.00     0.277 HD
HETATM   11  H   UNL     1      55.248   1.074  15.311  1.00  0.00     0.277 HD
ENDBRANCH   7   8
ENDBRANCH   2   7
BRANCH   1  12
HETATM   12  O   UNL     1      60.237  -1.023  13.309  1.00  0.00    -0.356 OA
HETATM   13  C   UNL     1      61.382  -0.609  12.578  1.00  0.00     0.210 C 
ENDBRANCH   1  12
TORSDOF 3
ENDMDL
