MODEL 1
REMARK VINA RESULT:      -4.6      0.000      0.000
REMARK  3 active torsions:
REMARK  status: ('A' for Active; 'I' for Inactive)
REMARK    1  A    between atoms: C_1  and  C_4 
REMARK    2  A    between atoms: C_2  and  N_9 
REMARK    3  A    between atoms: C_5  and  N_10 
ROOT
HETATM    1  C   UNL     1      62.472   9.778   3.713  1.00  0.00     0.011 A 
HETATM    2  C   UNL     1      63.195   8.012   5.205  1.00  0.00     0.053 A 
HETATM    3  C   UNL     1      62.849   9.351   4.985  1.00  0.00     0.046 A 
HETATM    4  C   UNL     1      63.289   7.095   4.121  1.00  0.00     0.054 A 
HETATM    5  C   UNL     1      62.510   8.872   2.648  1.00  0.00     0.017 A 
HETATM    6  C   UNL     1      62.914   7.548   2.853  1.00  0.00     0.032 A 
ENDROOT
BRANCH   1   7
HETATM    7  C   UNL     1      62.000  11.168   3.445  1.00  0.00     0.155 C 
HETATM    8  O   UNL     1      61.830  11.953   4.376  1.00  0.00    -0.293 OA
HETATM    9  C   UNL     1      61.757  11.596   2.018  1.00  0.00     0.096 C 
ENDBRANCH   1   7
BRANCH   2  10
HETATM   10  N   UNL     1      63.630   7.606   6.493  1.00  0.00    -0.397 N 
HETATM   11  H   UNL     1      63.056   7.760   7.277  1.00  0.00     0.156 HD
HETATM   12  H   UNL     1      64.507   7.173   6.603  1.00  0.00     0.156 HD
ENDBRANCH   2  10
BRANCH   4  13
HETATM   13  N   UNL     1      63.619   5.769   4.422  1.00  0.00    -0.392 N 
HETATM   14  C   UNL     1      64.814   5.113   3.929  1.00  0.00     0.146 C 
HETATM   15  H   UNL     1      63.009   5.255   4.998  1.00  0.00     0.159 HD
ENDBRANCH   4  13
TORSDOF 3
ENDMDL
MODEL 2
REMARK VINA RESULT:      -4.5      2.908      4.633
REMARK  3 active torsions:
REMARK  status: ('A' for Active; 'I' for Inactive)
REMARK    1  A    between atoms: C_1  and  C_4 
REMARK    2  A    between atoms: C_2  and  N_9 
REMARK    3  A    between atoms: C_5  and  N_10 
ROOT
HETATM    1  C   UNL     1      64.308   7.859   4.513  1.00  0.00     0.011 A 
HETATM    2  C   UNL     1      63.289  10.021   4.912  1.00  0.00     0.053 A 
HETATM    3  C   UNL     1      64.149   8.990   5.312  1.00  0.00     0.046 A 
HETATM    4  C   UNL     1      62.472   9.882   3.755  1.00  0.00     0.054 A 
HETATM    5  C   UNL     1      63.548   7.735   3.345  1.00  0.00     0.017 A 
HETATM    6  C   UNL     1      62.643   8.736   2.973  1.00  0.00     0.032 A 
ENDROOT
BRANCH   1   7
HETATM    7  C   UNL     1      65.282   6.779   4.843  1.00  0.00     0.155 C 
HETATM    8  O   UNL     1      65.184   6.160   5.902  1.00  0.00    -0.293 OA
HETATM    9  C   UNL     1      66.372   6.449   3.853  1.00  0.00     0.096 C 
ENDBRANCH   1   7
BRANCH   2  10
HETATM   10  N   UNL     1      63.096  11.139   5.764  1.00  0.00    -0.397 N 
HETATM   11  H   UNL     1      62.470  11.853   5.503  1.00  0.00     0.156 HD
HETATM   12  H   UNL     1      63.588  11.202   6.613  1.00  0.00     0.156 HD
ENDBRANCH   2  10
BRANCH   4  13
HETATM   13  N   UNL     1      61.655  10.962   3.406  1.00  0.00    -0.392 N 
HETATM   14  C   UNL     1      61.764  11.672   2.147  1.00  0.00     0.146 C 
HETATM   15  H   UNL     1      60.970  11.257   4.049  1.00  0.00     0.159 HD
ENDBRANCH   4  13
TORSDOF 3
ENDMDL
MODEL 3
REMARK VINA RESULT:      -4.5      2.323      2.937
REMARK  3 active torsions:
REMARK  status: ('A' for Active; 'I' for Inactive)
REMARK    1  A    between atoms: C_1  and  C_4 
REMARK    2  A    between atoms: C_2  and  N_9 
REMARK    3  A    between atoms: C_5  and  N_10 
ROOT
HETATM    1  C   UNL     1      62.604   8.543   3.147  1.00  0.00     0.011 A 
HETATM    2  C   UNL     1      63.595   9.663   5.053  1.00  0.00     0.053 A 
HETATM    3  C   UNL     1      62.654   9.632   4.015  1.00  0.00     0.046 A 
HETATM    4  C   UNL     1      64.591   8.653   5.165  1.00  0.00     0.054 A 
HETATM    5  C   UNL     1      63.546   7.517   3.280  1.00  0.00     0.017 A 
HETATM    6  C   UNL     1      64.525   7.575   4.277  1.00  0.00     0.032 A 
ENDROOT
BRANCH   1   7
HETATM    7  C   UNL     1      61.560   8.415   2.088  1.00  0.00     0.155 C 
HETATM    8  O   UNL     1      60.428   8.034   2.379  1.00  0.00    -0.293 OA
HETATM    9  C   UNL     1      61.912   8.777   0.666  1.00  0.00     0.096 C 
ENDBRANCH   1   7
BRANCH   2  10
HETATM   10  N   UNL     1      63.670  10.803   5.893  1.00  0.00    -0.397 N 
HETATM   11  H   UNL     1      64.451  10.932   6.478  1.00  0.00     0.156 HD
HETATM   12  H   UNL     1      62.940  11.464   5.893  1.00  0.00     0.156 HD
ENDBRANCH   2  10
BRANCH   4  13
HETATM   13  N   UNL     1      65.482   8.739   6.239  1.00  0.00    -0.392 N 
HETATM   14  C   UNL     1      66.727   8.000   6.305  1.00  0.00     0.146 C 
HETATM   15  H   UNL     1      65.253   9.333   6.990  1.00  0.00     0.159 HD
ENDBRANCH   4  13
TORSDOF 3
ENDMDL
MODEL 4
REMARK VINA RESULT:      -4.4      2.767      4.824
REMARK  3 active torsions:
REMARK  status: ('A' for Active; 'I' for Inactive)
REMARK    1  A    between atoms: C_1  and  C_4 
REMARK    2  A    between atoms: C_2  and  N_9 
REMARK    3  A    between atoms: C_5  and  N_10 
ROOT
HETATM    1  C   UNL     1      63.657   8.169   4.883  1.00  0.00     0.011 A 
HETATM    2  C   UNL     1      62.636   8.586   2.726  1.00  0.00     0.053 A 
HETATM    3  C   UNL     1      63.412   7.778   3.568  1.00  0.00     0.046 A 
HETATM    4  C   UNL     1      62.190   9.868   3.152  1.00  0.00     0.054 A 
HETATM    5  C   UNL     1      63.178   9.406   5.330  1.00  0.00     0.017 A 
HETATM    6  C   UNL     1      62.454  10.242   4.473  1.00  0.00     0.032 A 
ENDROOT
BRANCH   1   7
HETATM    7  C   UNL     1      64.393   7.303   5.849  1.00  0.00     0.155 C 
HETATM    8  O   UNL     1      64.059   7.274   7.033  1.00  0.00    -0.293 OA
HETATM    9  C   UNL     1      65.535   6.453   5.347  1.00  0.00     0.096 C 
ENDBRANCH   1   7
BRANCH   2  10
HETATM   10  N   UNL     1      62.443   8.201   1.374  1.00  0.00    -0.397 N 
HETATM   11  H   UNL     1      62.344   8.888   0.677  1.00  0.00     0.156 HD
HETATM   12  H   UNL     1      62.406   7.247   1.134  1.00  0.00     0.156 HD
ENDBRANCH   2  10
BRANCH   4  13
HETATM   13  N   UNL     1      61.401  10.607   2.264  1.00  0.00    -0.392 N 
HETATM   14  C   UNL     1      61.656  11.996   1.937  1.00  0.00     0.146 C 
HETATM   15  H   UNL     1      60.633  10.161   1.838  1.00  0.00     0.159 HD
ENDBRANCH   4  13
TORSDOF 3
ENDMDL
MODEL 5
REMARK VINA RESULT:      -4.3      2.875      4.233
REMARK  3 active torsions:
REMARK  status: ('A' for Active; 'I' for Inactive)
REMARK    1  A    between atoms: C_1  and  C_4 
REMARK    2  A    between atoms: C_2  and  N_9 
REMARK    3  A    between atoms: C_5  and  N_10 
ROOT
HETATM    1  C   UNL     1      63.886   8.279   4.422  1.00  0.00     0.011 A 
HETATM    2  C   UNL     1      62.315   9.619   3.154  1.00  0.00     0.053 A 
HETATM    3  C   UNL     1      63.107   9.428   4.294  1.00  0.00     0.046 A 
HETATM    4  C   UNL     1      62.193   8.598   2.170  1.00  0.00     0.054 A 
HETATM    5  C   UNL     1      63.814   7.290   3.434  1.00  0.00     0.017 A 
HETATM    6  C   UNL     1      62.978   7.451   2.324  1.00  0.00     0.032 A 
ENDROOT
BRANCH   1   7
HETATM    7  C   UNL     1      64.820   8.071   5.567  1.00  0.00     0.155 C 
HETATM    8  O   UNL     1      65.615   8.955   5.884  1.00  0.00    -0.293 OA
HETATM    9  C   UNL     1      64.757   6.774   6.336  1.00  0.00     0.096 C 
ENDBRANCH   1   7
BRANCH   2  10
HETATM   10  N   UNL     1      61.486  10.767   3.065  1.00  0.00    -0.397 N 
HETATM   11  H   UNL     1      61.817  11.579   2.619  1.00  0.00     0.156 HD
HETATM   12  H   UNL     1      60.580  10.752   3.451  1.00  0.00     0.156 HD
ENDBRANCH   2  10
BRANCH   4  13
HETATM   13  N   UNL     1      61.402   8.871   1.049  1.00  0.00    -0.392 N 
HETATM   14  C   UNL     1      60.413   7.948   0.528  1.00  0.00     0.146 C 
HETATM   15  H   UNL     1      61.523   9.733   0.590  1.00  0.00     0.159 HD
ENDBRANCH   4  13
TORSDOF 3
ENDMDL
MODEL 6
REMARK VINA RESULT:      -4.3      0.972      2.026
REMARK  3 active torsions:
REMARK  status: ('A' for Active; 'I' for Inactive)
REMARK    1  A    between atoms: C_1  and  C_4 
REMARK    2  A    between atoms: C_2  and  N_9 
REMARK    3  A    between atoms: C_5  and  N_10 
ROOT
HETATM    1  C   UNL     1      62.572   9.704   3.630  1.00  0.00     0.011 A 
HETATM    2  C   UNL     1      63.194   7.499   2.845  1.00  0.00     0.053 A 
HETATM    3  C   UNL     1      62.575   8.736   2.627  1.00  0.00     0.046 A 
HETATM    4  C   UNL     1      63.719   7.160   4.124  1.00  0.00     0.054 A 
HETATM    5  C   UNL     1      63.132   9.401   4.876  1.00  0.00     0.017 A 
HETATM    6  C   UNL     1      63.697   8.144   5.116  1.00  0.00     0.032 A 
ENDROOT
BRANCH   1   7
HETATM    7  C   UNL     1      62.014  11.072   3.417  1.00  0.00     0.155 C 
HETATM    8  O   UNL     1      61.791  11.805   4.380  1.00  0.00    -0.293 OA
HETATM    9  C   UNL     1      61.748  11.542   2.008  1.00  0.00     0.096 C 
ENDBRANCH   1   7
BRANCH   2  10
HETATM   10  N   UNL     1      63.140   6.504   1.834  1.00  0.00    -0.397 N 
HETATM   11  H   UNL     1      62.282   6.080   1.609  1.00  0.00     0.156 HD
HETATM   12  H   UNL     1      63.961   6.237   1.361  1.00  0.00     0.156 HD
ENDBRANCH   2  10
BRANCH   4  13
HETATM   13  N   UNL     1      64.342   5.914   4.258  1.00  0.00    -0.392 N 
HETATM   14  C   UNL     1      65.750   5.755   4.561  1.00  0.00     0.146 C 
HETATM   15  H   UNL     1      63.795   5.103   4.141  1.00  0.00     0.159 HD
ENDBRANCH   4  13
TORSDOF 3
ENDMDL
MODEL 7
REMARK VINA RESULT:      -4.2      3.858      4.926
REMARK  3 active torsions:
REMARK  status: ('A' for Active; 'I' for Inactive)
REMARK    1  A    between atoms: C_1  and  C_4 
REMARK    2  A    between atoms: C_2  and  N_9 
REMARK    3  A    between atoms: C_5  and  N_10 
ROOT
HETATM    1  C   UNL     1      65.323   7.273   6.226  1.00  0.00     0.011 A 
HETATM    2  C   UNL     1      66.891   6.416   7.862  1.00  0.00     0.053 A 
HETATM    3  C   UNL     1      66.453   7.449   7.024  1.00  0.00     0.046 A 
HETATM    4  C   UNL     1      66.274   5.134   7.825  1.00  0.00     0.054 A 
HETATM    5  C   UNL     1      64.676   6.033   6.221  1.00  0.00     0.017 A 
HETATM    6  C   UNL     1      65.148   4.979   7.012  1.00  0.00     0.032 A 
ENDROOT
BRANCH   1   7
HETATM    7  C   UNL     1      64.757   8.372   5.390  1.00  0.00     0.155 C 
HETATM    8  O   UNL     1      64.959   9.546   5.694  1.00  0.00    -0.293 OA
HETATM    9  C   UNL     1      63.955   8.017   4.162  1.00  0.00     0.096 C 
ENDBRANCH   1   7
BRANCH   2  10
HETATM   10  N   UNL     1      68.075   6.592   8.625  1.00  0.00    -0.397 N 
HETATM   11  H   UNL     1      68.932   6.758   8.171  1.00  0.00     0.156 HD
HETATM   12  H   UNL     1      68.039   6.546   9.608  1.00  0.00     0.156 HD
ENDBRANCH   2  10
BRANCH   4  13
HETATM   13  N   UNL     1      66.753   4.160   8.708  1.00  0.00    -0.392 N 
HETATM   14  C   UNL     1      67.504   2.996   8.280  1.00  0.00     0.146 C 
HETATM   15  H   UNL     1      66.571   4.270   9.669  1.00  0.00     0.159 HD
ENDBRANCH   4  13
TORSDOF 3
ENDMDL
MODEL 8
REMARK VINA RESULT:      -4.2      1.764      2.618
REMARK  3 active torsions:
REMARK  status: ('A' for Active; 'I' for Inactive)
REMARK    1  A    between atoms: C_1  and  C_4 
REMARK    2  A    between atoms: C_2  and  N_9 
REMARK    3  A    between atoms: C_5  and  N_10 
ROOT
HETATM    1  C   UNL     1      62.574   9.322   3.114  1.00  0.00     0.011 A 
HETATM    2  C   UNL     1      63.972   7.542   3.979  1.00  0.00     0.053 A 
HETATM    3  C   UNL     1      63.168   8.070   2.960  1.00  0.00     0.046 A 
HETATM    4  C   UNL     1      64.097   8.209   5.230  1.00  0.00     0.054 A 
HETATM    5  C   UNL     1      62.734  10.011   4.321  1.00  0.00     0.017 A 
HETATM    6  C   UNL     1      63.486   9.459   5.363  1.00  0.00     0.032 A 
ENDROOT
BRANCH   1   7
HETATM    7  C   UNL     1      61.790   9.972   2.024  1.00  0.00     0.155 C 
HETATM    8  O   UNL     1      61.166   9.285   1.217  1.00  0.00    -0.293 OA
HETATM    9  C   UNL     1      61.762  11.479   1.942  1.00  0.00     0.096 C 
ENDBRANCH   1   7
BRANCH   2  10
HETATM   10  N   UNL     1      64.523   6.243   3.830  1.00  0.00    -0.397 N 
HETATM   11  H   UNL     1      63.934   5.479   3.636  1.00  0.00     0.156 HD
HETATM   12  H   UNL     1      65.493   6.106   3.922  1.00  0.00     0.156 HD
ENDBRANCH   2  10
BRANCH   4  13
HETATM   13  N   UNL     1      64.935   7.631   6.190  1.00  0.00    -0.392 N 
HETATM   14  C   UNL     1      66.315   8.028   6.386  1.00  0.00     0.146 C 
HETATM   15  H   UNL     1      64.569   6.918   6.761  1.00  0.00     0.159 HD
ENDBRANCH   4  13
TORSDOF 3
ENDMDL
MODEL 9
REMARK VINA RESULT:      -4.0      2.763      3.556
REMARK  3 active torsions:
REMARK  status: ('A' for Active; 'I' for Inactive)
REMARK    1  A    between atoms: C_1  and  C_4 
REMARK    2  A    between atoms: C_2  and  N_9 
REMARK    3  A    between atoms: C_5  and  N_10 
ROOT
HETATM    1  C   UNL     1      63.969   8.285   5.066  1.00  0.00     0.011 A 
HETATM    2  C   UNL     1      66.110   7.823   6.101  1.00  0.00     0.053 A 
HETATM    3  C   UNL     1      65.331   8.552   5.193  1.00  0.00     0.046 A 
HETATM    4  C   UNL     1      65.560   6.722   6.815  1.00  0.00     0.054 A 
HETATM    5  C   UNL     1      63.405   7.237   5.803  1.00  0.00     0.017 A 
HETATM    6  C   UNL     1      64.194   6.468   6.666  1.00  0.00     0.032 A 
ENDROOT
BRANCH   1   7
HETATM    7  C   UNL     1      63.076   9.095   4.187  1.00  0.00     0.155 C 
HETATM    8  O   UNL     1      62.660  10.188   4.568  1.00  0.00    -0.293 OA
HETATM    9  C   UNL     1      62.711   8.561   2.824  1.00  0.00     0.096 C 
ENDBRANCH   1   7
BRANCH   2  10
HETATM   10  N   UNL     1      67.506   8.069   6.178  1.00  0.00    -0.397 N 
HETATM   11  H   UNL     1      67.888   8.868   5.750  1.00  0.00     0.156 HD
HETATM   12  H   UNL     1      68.091   7.440   6.658  1.00  0.00     0.156 HD
ENDBRANCH   2  10
BRANCH   4  13
HETATM   13  N   UNL     1      66.394   6.056   7.720  1.00  0.00    -0.392 N 
HETATM   14  C   UNL     1      66.432   6.355   9.138  1.00  0.00     0.146 C 
HETATM   15  H   UNL     1      66.986   5.348   7.377  1.00  0.00     0.159 HD
ENDBRANCH   4  13
TORSDOF 3
ENDMDL
