MODEL 1
REMARK VINA RESULT:      -4.6      0.000      0.000
REMARK  1 active torsions:
REMARK  status: ('A' for Active; 'I' for Inactive)
REMARK    1  A    between atoms: C_1  and  C_2 
ROOT
HETATM    1  C   UNL     1      62.472   9.277   2.927  1.00  0.00     0.113 C 
HETATM    2  N   UNL     1      63.116   8.166   2.926  1.00  0.00    -0.384 N 
ATOM      3  HN  UNL     1      63.109   7.664   2.038  1.00  0.00     0.159 HD
HETATM    4  C   UNL     1      62.191  10.218   4.054  1.00  0.00     0.050 C 
HETATM    5  N   UNL     1      63.882   9.425   5.594  1.00  0.00    -0.397 N 
HETATM    6  C   UNL     1      62.903  10.287   5.180  1.00  0.00     0.085 C 
HETATM    7  C   UNL     1      63.854   7.514   4.001  1.00  0.00     0.139 C 
HETATM    8  C   UNL     1      63.666   7.989   5.436  1.00  0.00     0.138 C 
HETATM    9  H   UNL     1      64.716   9.767   5.991  1.00  0.00     0.158 HD
ENDROOT
BRANCH   1  10
HETATM   10  C   UNL     1      61.926   9.765   1.564  1.00  0.00     0.432 C 
HETATM   11  F   UNL     1      62.699   9.381   0.506  1.00  0.00    -0.165 F 
HETATM   12  F   UNL     1      61.843  11.124   1.489  1.00  0.00    -0.165 F 
HETATM   13  F   UNL     1      60.679   9.283   1.303  1.00  0.00    -0.165 F 
ENDBRANCH   1  10
TORSDOF 1
ENDMDL
MODEL 2
REMARK VINA RESULT:      -4.2      1.285      2.226
REMARK  1 active torsions:
REMARK  status: ('A' for Active; 'I' for Inactive)
REMARK    1  A    between atoms: C_1  and  C_2 
ROOT
HETATM    1  C   UNL     1      62.332   9.356   2.733  1.00  0.00     0.113 C 
HETATM    2  N   UNL     1      61.886  10.516   3.053  1.00  0.00    -0.384 N 
ATOM      3  HN  UNL     1      61.358  10.993   2.322  1.00  0.00     0.159 HD
HETATM    4  C   UNL     1      63.212   8.425   3.503  1.00  0.00     0.050 C 
HETATM    5  N   UNL     1      62.906   9.399   5.698  1.00  0.00    -0.397 N 
HETATM    6  C   UNL     1      63.364   8.447   4.828  1.00  0.00     0.085 C 
HETATM    7  C   UNL     1      62.020  11.257   4.302  1.00  0.00     0.139 C 
HETATM    8  C   UNL     1      63.045  10.806   5.335  1.00  0.00     0.138 C 
HETATM    9  H   UNL     1      62.492   9.139   6.553  1.00  0.00     0.158 HD
ENDROOT
BRANCH   1  10
HETATM   10  C   UNL     1      61.876   8.787   1.369  1.00  0.00     0.432 C 
HETATM   11  F   UNL     1      62.582   9.291   0.313  1.00  0.00    -0.165 F 
HETATM   12  F   UNL     1      60.567   9.055   1.100  1.00  0.00    -0.165 F 
HETATM   13  F   UNL     1      62.020   7.434   1.296  1.00  0.00    -0.165 F 
ENDBRANCH   1  10
TORSDOF 1
ENDMDL
MODEL 3
REMARK VINA RESULT:      -3.9      6.345      7.516
REMARK  1 active torsions:
REMARK  status: ('A' for Active; 'I' for Inactive)
REMARK    1  A    between atoms: C_1  and  C_2 
ROOT
HETATM    1  C   UNL     1      66.474   6.430   7.525  1.00  0.00     0.113 C 
HETATM    2  N   UNL     1      65.292   6.897   7.340  1.00  0.00    -0.384 N 
ATOM      3  HN  UNL     1      64.682   6.867   8.158  1.00  0.00     0.159 HD
HETATM    4  C   UNL     1      67.586   6.230   6.547  1.00  0.00     0.050 C 
HETATM    5  N   UNL     1      66.769   7.686   4.794  1.00  0.00    -0.397 N 
HETATM    6  C   UNL     1      67.700   6.875   5.385  1.00  0.00     0.085 C 
HETATM    7  C   UNL     1      64.689   7.462   6.139  1.00  0.00     0.139 C 
HETATM    8  C   UNL     1      65.371   7.264   4.792  1.00  0.00     0.138 C 
HETATM    9  H   UNL     1      67.038   8.537   4.378  1.00  0.00     0.158 HD
ENDROOT
BRANCH   1  10
HETATM   10  C   UNL     1      66.850   6.046   8.976  1.00  0.00     0.432 C 
HETATM   11  F   UNL     1      65.972   6.529   9.905  1.00  0.00    -0.165 F 
HETATM   12  F   UNL     1      68.075   6.519   9.342  1.00  0.00    -0.165 F 
HETATM   13  F   UNL     1      66.881   4.698   9.164  1.00  0.00    -0.165 F 
ENDBRANCH   1  10
TORSDOF 1
ENDMDL
MODEL 4
REMARK VINA RESULT:      -3.9      3.787      4.744
REMARK  1 active torsions:
REMARK  status: ('A' for Active; 'I' for Inactive)
REMARK    1  A    between atoms: C_1  and  C_2 
ROOT
HETATM    1  C   UNL     1      65.302   7.773   5.844  1.00  0.00     0.113 C 
HETATM    2  N   UNL     1      65.069   7.229   6.983  1.00  0.00    -0.384 N 
ATOM      3  HN  UNL     1      64.151   7.430   7.379  1.00  0.00     0.159 HD
HETATM    4  C   UNL     1      66.552   7.778   5.024  1.00  0.00     0.050 C 
HETATM    5  N   UNL     1      67.668   5.912   6.088  1.00  0.00    -0.397 N 
HETATM    6  C   UNL     1      67.530   6.877   5.128  1.00  0.00     0.085 C 
HETATM    7  C   UNL     1      65.919   6.368   7.798  1.00  0.00     0.139 C 
HETATM    8  C   UNL     1      67.405   6.264   7.481  1.00  0.00     0.138 C 
HETATM    9  H   UNL     1      67.939   4.997   5.844  1.00  0.00     0.158 HD
ENDROOT
BRANCH   1  10
HETATM   10  C   UNL     1      64.119   8.509   5.170  1.00  0.00     0.432 C 
HETATM   11  F   UNL     1      64.047   8.290   3.824  1.00  0.00    -0.165 F 
HETATM   12  F   UNL     1      64.188   9.862   5.323  1.00  0.00    -0.165 F 
HETATM   13  F   UNL     1      62.914   8.121   5.672  1.00  0.00    -0.165 F 
ENDBRANCH   1  10
TORSDOF 1
ENDMDL
MODEL 5
REMARK VINA RESULT:      -3.8      3.690      4.674
REMARK  1 active torsions:
REMARK  status: ('A' for Active; 'I' for Inactive)
REMARK    1  A    between atoms: C_1  and  C_2 
ROOT
HETATM    1  C   UNL     1      65.281   7.808   5.611  1.00  0.00     0.113 C 
HETATM    2  N   UNL     1      66.371   7.990   4.957  1.00  0.00    -0.384 N 
ATOM      3  HN  UNL     1      66.276   8.545   4.106  1.00  0.00     0.159 HD
HETATM    4  C   UNL     1      65.025   6.982   6.830  1.00  0.00     0.050 C 
HETATM    5  N   UNL     1      67.317   6.743   7.572  1.00  0.00    -0.397 N 
HETATM    6  C   UNL     1      65.962   6.607   7.703  1.00  0.00     0.085 C 
HETATM    7  C   UNL     1      67.722   7.523   5.244  1.00  0.00     0.139 C 
HETATM    8  C   UNL     1      67.933   6.430   6.285  1.00  0.00     0.138 C 
HETATM    9  H   UNL     1      67.866   7.045   8.331  1.00  0.00     0.158 HD
ENDROOT
BRANCH   1  10
HETATM   10  C   UNL     1      64.035   8.578   5.114  1.00  0.00     0.432 C 
HETATM   11  F   UNL     1      62.875   8.163   5.707  1.00  0.00    -0.165 F 
HETATM   12  F   UNL     1      63.835   8.441   3.773  1.00  0.00    -0.165 F 
HETATM   13  F   UNL     1      64.117   9.915   5.362  1.00  0.00    -0.165 F 
ENDBRANCH   1  10
TORSDOF 1
ENDMDL
MODEL 6
REMARK VINA RESULT:      -3.8      1.772      2.255
REMARK  1 active torsions:
REMARK  status: ('A' for Active; 'I' for Inactive)
REMARK    1  A    between atoms: C_1  and  C_2 
ROOT
HETATM    1  C   UNL     1      63.132   8.824   3.826  1.00  0.00     0.113 C 
HETATM    2  N   UNL     1      63.121   7.869   2.968  1.00  0.00    -0.384 N 
ATOM      3  HN  UNL     1      62.404   7.945   2.246  1.00  0.00     0.159 HD
HETATM    4  C   UNL     1      63.964   8.993   5.056  1.00  0.00     0.050 C 
HETATM    5  N   UNL     1      65.699   7.392   4.522  1.00  0.00    -0.397 N 
HETATM    6  C   UNL     1      65.133   8.388   5.271  1.00  0.00     0.085 C 
HETATM    7  C   UNL     1      63.977   6.692   2.869  1.00  0.00     0.139 C 
HETATM    8  C   UNL     1      64.852   6.299   4.052  1.00  0.00     0.138 C 
HETATM    9  H   UNL     1      66.660   7.412   4.305  1.00  0.00     0.158 HD
ENDROOT
BRANCH   1  10
HETATM   10  C   UNL     1      62.182  10.014   3.555  1.00  0.00     0.432 C 
HETATM   11  F   UNL     1      62.201  10.431   2.254  1.00  0.00    -0.165 F 
HETATM   12  F   UNL     1      62.491  11.112   4.301  1.00  0.00    -0.165 F 
HETATM   13  F   UNL     1      60.882   9.712   3.826  1.00  0.00    -0.165 F 
ENDBRANCH   1  10
TORSDOF 1
ENDMDL
MODEL 7
REMARK VINA RESULT:      -3.7      5.332      6.679
REMARK  1 active torsions:
REMARK  status: ('A' for Active; 'I' for Inactive)
REMARK    1  A    between atoms: C_1  and  C_2 
ROOT
HETATM    1  C   UNL     1      66.918   6.679   6.605  1.00  0.00     0.113 C 
HETATM    2  N   UNL     1      67.179   7.143   7.773  1.00  0.00    -0.384 N 
ATOM      3  HN  UNL     1      67.239   8.160   7.830  1.00  0.00     0.159 HD
HETATM    4  C   UNL     1      66.850   5.262   6.133  1.00  0.00     0.050 C 
HETATM    5  N   UNL     1      66.637   4.190   8.293  1.00  0.00    -0.397 N 
HETATM    6  C   UNL     1      66.646   4.208   6.925  1.00  0.00     0.085 C 
HETATM    7  C   UNL     1      67.404   6.438   9.030  1.00  0.00     0.139 C 
HETATM    8  C   UNL     1      67.664   4.937   9.012  1.00  0.00     0.138 C 
HETATM    9  H   UNL     1      65.950   3.681   8.783  1.00  0.00     0.158 HD
ENDROOT
BRANCH   1  10
HETATM   10  C   UNL     1      66.576   7.712   5.506  1.00  0.00     0.432 C 
HETATM   11  F   UNL     1      65.831   8.760   5.967  1.00  0.00    -0.165 F 
HETATM   12  F   UNL     1      65.860   7.170   4.481  1.00  0.00    -0.165 F 
HETATM   13  F   UNL     1      67.690   8.267   4.952  1.00  0.00    -0.165 F 
ENDBRANCH   1  10
TORSDOF 1
ENDMDL
MODEL 8
REMARK VINA RESULT:      -3.7      3.308      4.097
REMARK  1 active torsions:
REMARK  status: ('A' for Active; 'I' for Inactive)
REMARK    1  A    between atoms: C_1  and  C_2 
ROOT
HETATM    1  C   UNL     1      62.791   8.450   4.479  1.00  0.00     0.113 C 
HETATM    2  N   UNL     1      62.430   7.868   3.394  1.00  0.00    -0.384 N 
ATOM      3  HN  UNL     1      62.544   6.854   3.388  1.00  0.00     0.159 HD
HETATM    4  C   UNL     1      62.855   9.907   4.806  1.00  0.00     0.050 C 
HETATM    5  N   UNL     1      61.420  10.721   3.034  1.00  0.00    -0.397 N 
HETATM    6  C   UNL     1      62.162  10.857   4.176  1.00  0.00     0.085 C 
HETATM    7  C   UNL     1      61.881   8.435   2.167  1.00  0.00     0.139 C 
HETATM    8  C   UNL     1      61.969   9.937   1.930  1.00  0.00     0.138 C 
HETATM    9  H   UNL     1      60.534  11.144   2.958  1.00  0.00     0.158 HD
ENDROOT
BRANCH   1  10
HETATM   10  C   UNL     1      63.189   7.535   5.661  1.00  0.00     0.432 C 
HETATM   11  F   UNL     1      63.111   6.204   5.360  1.00  0.00    -0.165 F 
HETATM   12  F   UNL     1      62.394   7.714   6.754  1.00  0.00    -0.165 F 
HETATM   13  F   UNL     1      64.470   7.745   6.072  1.00  0.00    -0.165 F 
ENDBRANCH   1  10
TORSDOF 1
ENDMDL
MODEL 9
REMARK VINA RESULT:      -3.7      3.043      4.316
REMARK  1 active torsions:
REMARK  status: ('A' for Active; 'I' for Inactive)
REMARK    1  A    between atoms: C_1  and  C_2 
ROOT
HETATM    1  C   UNL     1      60.831   8.717   2.298  1.00  0.00     0.113 C 
HETATM    2  N   UNL     1      60.226   8.361   3.373  1.00  0.00    -0.384 N 
ATOM      3  HN  UNL     1      60.627   8.726   4.237  1.00  0.00     0.159 HD
HETATM    4  C   UNL     1      60.587   8.305   0.883  1.00  0.00     0.050 C 
HETATM    5  N   UNL     1      58.349   7.424   1.162  1.00  0.00    -0.397 N 
HETATM    6  C   UNL     1      59.436   7.809   0.425  1.00  0.00     0.085 C 
HETATM    7  C   UNL     1      59.051   7.514   3.546  1.00  0.00     0.139 C 
HETATM    8  C   UNL     1      58.567   6.656   2.384  1.00  0.00     0.138 C 
HETATM    9  H   UNL     1      57.438   7.661   0.872  1.00  0.00     0.158 HD
ENDROOT
BRANCH   1  10
HETATM   10  C   UNL     1      61.964   9.760   2.451  1.00  0.00     0.432 C 
HETATM   11  F   UNL     1      61.605  10.835   3.214  1.00  0.00    -0.165 F 
HETATM   12  F   UNL     1      62.369  10.273   1.255  1.00  0.00    -0.165 F 
HETATM   13  F   UNL     1      63.072   9.239   3.048  1.00  0.00    -0.165 F 
ENDBRANCH   1  10
TORSDOF 1
ENDMDL
