MODEL 1
REMARK VINA RESULT:      -6.2      0.000      0.000
REMARK  3 active torsions:
REMARK  status: ('A' for Active; 'I' for Inactive)
REMARK    1  A    between atoms: C_1  and  C_2 
REMARK    2  A    between atoms: C_1  and  C_3 
REMARK    3  A    between atoms: C_3  and  C_7 
ROOT
HETATM    1  C   UNL     1      63.805   7.392   5.782  1.00  0.00     0.165 C 
HETATM    2  O   UNL     1      63.372   7.427   6.936  1.00  0.00    -0.292 OA
ENDROOT
BRANCH   1   3
HETATM    3  C   UNL     1      65.274   7.473   5.576  1.00  0.00     0.025 A 
HETATM    4  C   UNL     1      66.152   8.009   6.509  1.00  0.00     0.102 A 
HETATM    5  N   UNL     1      67.499   8.047   6.348  1.00  0.00    -0.374 N 
HETATM    6  C   UNL     1      67.993   7.541   5.197  1.00  0.00     0.087 A 
ATOM      7  HN  UNL     1      68.111   8.439   7.064  1.00  0.00     0.164 HD
HETATM    8  C   UNL     1      67.200   7.005   4.195  1.00  0.00     0.018 A 
HETATM    9  C   UNL     1      65.821   6.971   4.391  1.00  0.00     0.018 A 
ENDBRANCH   1   3
BRANCH   1  10
HETATM   10  C   UNL     1      62.867   7.296   4.595  1.00  0.00     0.122 C 
BRANCH  10  11
HETATM   11  C   UNL     1      62.649   8.579   3.826  1.00  0.00    -0.051 A 
HETATM   12  C   UNL     1      62.432   8.594   2.442  1.00  0.00     0.008 A 
HETATM   13  C   UNL     1      62.079   9.777   1.785  1.00  0.00     0.007 A 
HETATM   14  C   UNL     1      61.913  10.965   2.501  1.00  0.00    -0.062 A 
HETATM   15  C   UNL     1      62.166  10.966   3.876  1.00  0.00     0.007 A 
HETATM   16  C   UNL     1      61.463  12.222   1.817  1.00  0.00     0.048 C 
HETATM   17  C   UNL     1      62.523   9.785   4.532  1.00  0.00     0.008 A 
ENDBRANCH  10  11
ENDBRANCH   1  10
TORSDOF 3
ENDMDL
MODEL 2
REMARK VINA RESULT:      -5.8      1.586      2.145
REMARK  3 active torsions:
REMARK  status: ('A' for Active; 'I' for Inactive)
REMARK    1  A    between atoms: C_1  and  C_2 
REMARK    2  A    between atoms: C_1  and  C_3 
REMARK    3  A    between atoms: C_3  and  C_7 
ROOT
HETATM    1  C   UNL     1      65.230   7.856   5.729  1.00  0.00     0.165 C 
HETATM    2  O   UNL     1      65.853   8.835   6.144  1.00  0.00    -0.292 OA
ENDROOT
BRANCH   1   3
HETATM    3  C   UNL     1      65.999   6.704   5.191  1.00  0.00     0.025 A 
HETATM    4  C   UNL     1      66.707   5.814   5.989  1.00  0.00     0.102 A 
HETATM    5  N   UNL     1      67.375   4.734   5.512  1.00  0.00    -0.374 N 
HETATM    6  C   UNL     1      67.350   4.541   4.175  1.00  0.00     0.087 A 
ATOM      7  HN  UNL     1      67.874   4.098   6.134  1.00  0.00     0.164 HD
HETATM    8  C   UNL     1      66.692   5.381   3.293  1.00  0.00     0.018 A 
HETATM    9  C   UNL     1      66.006   6.478   3.811  1.00  0.00     0.018 A 
ENDBRANCH   1   3
BRANCH   1  10
HETATM   10  C   UNL     1      63.714   7.831   5.737  1.00  0.00     0.122 C 
BRANCH  10  11
HETATM   11  C   UNL     1      63.036   8.833   4.830  1.00  0.00    -0.051 A 
HETATM   12  C   UNL     1      62.804  10.158   5.222  1.00  0.00     0.008 A 
HETATM   13  C   UNL     1      62.320  11.101   4.310  1.00  0.00     0.007 A 
HETATM   14  C   UNL     1      62.079  10.743   2.980  1.00  0.00    -0.062 A 
HETATM   15  C   UNL     1      62.271   9.414   2.592  1.00  0.00     0.007 A 
HETATM   16  C   UNL     1      61.629  11.764   1.977  1.00  0.00     0.048 C 
HETATM   17  C   UNL     1      62.751   8.471   3.505  1.00  0.00     0.008 A 
ENDBRANCH  10  11
ENDBRANCH   1  10
TORSDOF 3
ENDMDL
MODEL 3
REMARK VINA RESULT:      -5.6      1.574      2.161
REMARK  3 active torsions:
REMARK  status: ('A' for Active; 'I' for Inactive)
REMARK    1  A    between atoms: C_1  and  C_2 
REMARK    2  A    between atoms: C_1  and  C_3 
REMARK    3  A    between atoms: C_3  and  C_7 
ROOT
HETATM    1  C   UNL     1      64.417   6.311   3.517  1.00  0.00     0.165 C 
HETATM    2  O   UNL     1      64.987   5.689   2.618  1.00  0.00    -0.292 OA
ENDROOT
BRANCH   1   3
HETATM    3  C   UNL     1      65.234   6.836   4.641  1.00  0.00     0.025 A 
HETATM    4  C   UNL     1      64.766   6.948   5.944  1.00  0.00     0.102 A 
HETATM    5  N   UNL     1      65.519   7.385   6.985  1.00  0.00    -0.374 N 
HETATM    6  C   UNL     1      66.793   7.742   6.712  1.00  0.00     0.087 A 
ATOM      7  HN  UNL     1      65.140   7.441   7.931  1.00  0.00     0.164 HD
HETATM    8  C   UNL     1      67.347   7.688   5.444  1.00  0.00     0.018 A 
HETATM    9  C   UNL     1      66.554   7.228   4.395  1.00  0.00     0.018 A 
ENDBRANCH   1   3
BRANCH   1  10
HETATM   10  C   UNL     1      62.915   6.516   3.498  1.00  0.00     0.122 C 
BRANCH  10  11
HETATM   11  C   UNL     1      62.447   7.905   3.127  1.00  0.00    -0.051 A 
HETATM   12  C   UNL     1      62.218   8.898   4.088  1.00  0.00     0.008 A 
HETATM   13  C   UNL     1      61.938  10.215   3.705  1.00  0.00     0.007 A 
HETATM   14  C   UNL     1      61.906  10.569   2.354  1.00  0.00    -0.062 A 
HETATM   15  C   UNL     1      62.095   9.576   1.389  1.00  0.00     0.007 A 
HETATM   16  C   UNL     1      61.679  11.992   1.936  1.00  0.00     0.048 C 
HETATM   17  C   UNL     1      62.370   8.260   1.772  1.00  0.00     0.008 A 
ENDBRANCH  10  11
ENDBRANCH   1  10
TORSDOF 3
ENDMDL
MODEL 4
REMARK VINA RESULT:      -5.5      2.243      3.150
REMARK  3 active torsions:
REMARK  status: ('A' for Active; 'I' for Inactive)
REMARK    1  A    between atoms: C_1  and  C_2 
REMARK    2  A    between atoms: C_1  and  C_3 
REMARK    3  A    between atoms: C_3  and  C_7 
ROOT
HETATM    1  C   UNL     1      64.714   7.083   6.598  1.00  0.00     0.165 C 
HETATM    2  O   UNL     1      63.571   7.245   7.031  1.00  0.00    -0.292 OA
ENDROOT
BRANCH   1   3
HETATM    3  C   UNL     1      65.658   6.254   7.389  1.00  0.00     0.025 A 
HETATM    4  C   UNL     1      65.583   4.868   7.469  1.00  0.00     0.102 A 
HETATM    5  N   UNL     1      66.467   4.099   8.153  1.00  0.00    -0.374 N 
HETATM    6  C   UNL     1      67.464   4.741   8.801  1.00  0.00     0.087 A 
ATOM      7  HN  UNL     1      66.383   3.083   8.176  1.00  0.00     0.164 HD
HETATM    8  C   UNL     1      67.614   6.118   8.801  1.00  0.00     0.018 A 
HETATM    9  C   UNL     1      66.696   6.883   8.084  1.00  0.00     0.018 A 
ENDBRANCH   1   3
BRANCH   1  10
HETATM   10  C   UNL     1      65.162   7.734   5.305  1.00  0.00     0.122 C 
BRANCH  10  11
HETATM   11  C   UNL     1      64.081   7.951   4.270  1.00  0.00    -0.051 A 
HETATM   12  C   UNL     1      63.311   9.122   4.228  1.00  0.00     0.008 A 
HETATM   13  C   UNL     1      62.429   9.361   3.168  1.00  0.00     0.007 A 
HETATM   14  C   UNL     1      62.316   8.446   2.119  1.00  0.00    -0.062 A 
HETATM   15  C   UNL     1      63.051   7.258   2.175  1.00  0.00     0.007 A 
HETATM   16  C   UNL     1      61.428   8.727   0.943  1.00  0.00     0.048 C 
HETATM   17  C   UNL     1      63.929   7.017   3.235  1.00  0.00     0.008 A 
ENDBRANCH  10  11
ENDBRANCH   1  10
TORSDOF 3
ENDMDL
MODEL 5
REMARK VINA RESULT:      -5.4      1.696      2.384
REMARK  3 active torsions:
REMARK  status: ('A' for Active; 'I' for Inactive)
REMARK    1  A    between atoms: C_1  and  C_2 
REMARK    2  A    between atoms: C_1  and  C_3 
REMARK    3  A    between atoms: C_3  and  C_7 
ROOT
HETATM    1  C   UNL     1      64.620   7.558   6.266  1.00  0.00     0.165 C 
HETATM    2  O   UNL     1      63.577   7.307   6.873  1.00  0.00    -0.292 OA
ENDROOT
BRANCH   1   3
HETATM    3  C   UNL     1      65.849   6.808   6.632  1.00  0.00     0.025 A 
HETATM    4  C   UNL     1      66.704   7.189   7.659  1.00  0.00     0.102 A 
HETATM    5  N   UNL     1      67.804   6.486   8.030  1.00  0.00    -0.374 N 
HETATM    6  C   UNL     1      68.075   5.360   7.333  1.00  0.00     0.087 A 
ATOM      7  HN  UNL     1      68.400   6.794   8.798  1.00  0.00     0.164 HD
HETATM    8  C   UNL     1      67.298   4.907   6.280  1.00  0.00     0.018 A 
HETATM    9  C   UNL     1      66.169   5.644   5.926  1.00  0.00     0.018 A 
ENDBRANCH   1   3
BRANCH   1  10
HETATM   10  C   UNL     1      64.664   8.624   5.189  1.00  0.00     0.122 C 
BRANCH  10  11
HETATM   11  C   UNL     1      63.598   8.522   4.121  1.00  0.00    -0.051 A 
HETATM   12  C   UNL     1      62.650   9.532   3.913  1.00  0.00     0.008 A 
HETATM   13  C   UNL     1      61.778   9.481   2.820  1.00  0.00     0.007 A 
HETATM   14  C   UNL     1      61.853   8.432   1.901  1.00  0.00    -0.062 A 
HETATM   15  C   UNL     1      62.770   7.401   2.124  1.00  0.00     0.007 A 
HETATM   16  C   UNL     1      60.971   8.407   0.687  1.00  0.00     0.048 C 
HETATM   17  C   UNL     1      63.638   7.449   3.218  1.00  0.00     0.008 A 
ENDBRANCH  10  11
ENDBRANCH   1  10
TORSDOF 3
ENDMDL
MODEL 6
REMARK VINA RESULT:      -5.3      2.438      5.937
REMARK  3 active torsions:
REMARK  status: ('A' for Active; 'I' for Inactive)
REMARK    1  A    between atoms: C_1  and  C_2 
REMARK    2  A    between atoms: C_1  and  C_3 
REMARK    3  A    between atoms: C_3  and  C_7 
ROOT
HETATM    1  C   UNL     1      63.209   7.419   3.790  1.00  0.00     0.165 C 
HETATM    2  O   UNL     1      62.339   6.546   3.780  1.00  0.00    -0.292 OA
ENDROOT
BRANCH   1   3
HETATM    3  C   UNL     1      62.781   8.842   3.811  1.00  0.00     0.025 A 
HETATM    4  C   UNL     1      62.080   9.449   2.776  1.00  0.00     0.102 A 
HETATM    5  N   UNL     1      61.647  10.734   2.805  1.00  0.00    -0.374 N 
HETATM    6  C   UNL     1      61.941  11.455   3.910  1.00  0.00     0.087 A 
ATOM      7  HN  UNL     1      61.124  11.139   2.028  1.00  0.00     0.164 HD
HETATM    8  C   UNL     1      62.654  10.949   4.985  1.00  0.00     0.018 A 
HETATM    9  C   UNL     1      63.078   9.623   4.932  1.00  0.00     0.018 A 
ENDBRANCH   1   3
BRANCH   1  10
HETATM   10  C   UNL     1      64.681   7.060   3.755  1.00  0.00     0.122 C 
BRANCH  10  11
HETATM   11  C   UNL     1      65.349   6.897   5.101  1.00  0.00    -0.051 A 
HETATM   12  C   UNL     1      66.216   7.863   5.627  1.00  0.00     0.008 A 
HETATM   13  C   UNL     1      66.694   7.759   6.938  1.00  0.00     0.007 A 
HETATM   14  C   UNL     1      66.296   6.699   7.756  1.00  0.00    -0.062 A 
HETATM   15  C   UNL     1      65.462   5.710   7.225  1.00  0.00     0.007 A 
HETATM   16  C   UNL     1      66.745   6.617   9.185  1.00  0.00     0.048 C 
HETATM   17  C   UNL     1      64.988   5.812   5.915  1.00  0.00     0.008 A 
ENDBRANCH  10  11
ENDBRANCH   1  10
TORSDOF 3
ENDMDL
MODEL 7
REMARK VINA RESULT:      -5.3      2.410      6.189
REMARK  3 active torsions:
REMARK  status: ('A' for Active; 'I' for Inactive)
REMARK    1  A    between atoms: C_1  and  C_2 
REMARK    2  A    between atoms: C_1  and  C_3 
REMARK    3  A    between atoms: C_3  and  C_7 
ROOT
HETATM    1  C   UNL     1      63.695   8.516   5.281  1.00  0.00     0.165 C 
HETATM    2  O   UNL     1      63.093   7.972   6.209  1.00  0.00    -0.292 OA
ENDROOT
BRANCH   1   3
HETATM    3  C   UNL     1      62.933   8.871   4.056  1.00  0.00     0.025 A 
HETATM    4  C   UNL     1      62.099   9.979   3.964  1.00  0.00     0.102 A 
HETATM    5  N   UNL     1      61.434  10.335   2.837  1.00  0.00    -0.374 N 
HETATM    6  C   UNL     1      61.594   9.542   1.754  1.00  0.00     0.087 A 
ATOM      7  HN  UNL     1      60.840  11.164   2.807  1.00  0.00     0.164 HD
HETATM    8  C   UNL     1      62.384   8.405   1.750  1.00  0.00     0.018 A 
HETATM    9  C   UNL     1      63.063   8.066   2.919  1.00  0.00     0.018 A 
ENDBRANCH   1   3
BRANCH   1  10
HETATM   10  C   UNL     1      65.183   8.794   5.367  1.00  0.00     0.122 C 
BRANCH  10  11
HETATM   11  C   UNL     1      66.063   7.589   5.610  1.00  0.00    -0.051 A 
HETATM   12  C   UNL     1      66.622   7.313   6.865  1.00  0.00     0.008 A 
HETATM   13  C   UNL     1      67.300   6.112   7.099  1.00  0.00     0.007 A 
HETATM   14  C   UNL     1      67.412   5.153   6.089  1.00  0.00    -0.062 A 
HETATM   15  C   UNL     1      66.891   5.438   4.824  1.00  0.00     0.007 A 
HETATM   16  C   UNL     1      68.074   3.832   6.352  1.00  0.00     0.048 C 
HETATM   17  C   UNL     1      66.217   6.640   4.589  1.00  0.00     0.008 A 
ENDBRANCH  10  11
ENDBRANCH   1  10
TORSDOF 3
ENDMDL
MODEL 8
REMARK VINA RESULT:      -5.3      1.748      2.202
REMARK  3 active torsions:
REMARK  status: ('A' for Active; 'I' for Inactive)
REMARK    1  A    between atoms: C_1  and  C_2 
REMARK    2  A    between atoms: C_1  and  C_3 
REMARK    3  A    between atoms: C_3  and  C_7 
ROOT
HETATM    1  C   UNL     1      65.083   6.724   4.655  1.00  0.00     0.165 C 
HETATM    2  O   UNL     1      65.475   6.684   3.487  1.00  0.00    -0.292 OA
ENDROOT
BRANCH   1   3
HETATM    3  C   UNL     1      66.072   6.504   5.741  1.00  0.00     0.025 A 
HETATM    4  C   UNL     1      66.252   7.379   6.806  1.00  0.00     0.102 A 
HETATM    5  N   UNL     1      67.121   7.164   7.825  1.00  0.00    -0.374 N 
HETATM    6  C   UNL     1      67.858   6.033   7.774  1.00  0.00     0.087 A 
ATOM      7  HN  UNL     1      67.215   7.827   8.595  1.00  0.00     0.164 HD
HETATM    8  C   UNL     1      67.768   5.108   6.746  1.00  0.00     0.018 A 
HETATM    9  C   UNL     1      66.861   5.350   5.716  1.00  0.00     0.018 A 
ENDBRANCH   1   3
BRANCH   1  10
HETATM   10  C   UNL     1      63.622   6.964   4.984  1.00  0.00     0.122 C 
BRANCH  10  11
HETATM   11  C   UNL     1      62.988   8.163   4.317  1.00  0.00    -0.051 A 
HETATM   12  C   UNL     1      62.914   9.414   4.943  1.00  0.00     0.008 A 
HETATM   13  C   UNL     1      62.465  10.540   4.244  1.00  0.00     0.007 A 
HETATM   14  C   UNL     1      62.104  10.441   2.897  1.00  0.00    -0.062 A 
HETATM   15  C   UNL     1      62.139   9.189   2.277  1.00  0.00     0.007 A 
HETATM   16  C   UNL     1      61.691  11.656   2.120  1.00  0.00     0.048 C 
HETATM   17  C   UNL     1      62.583   8.064   2.977  1.00  0.00     0.008 A 
ENDBRANCH  10  11
ENDBRANCH   1  10
TORSDOF 3
ENDMDL
MODEL 9
REMARK VINA RESULT:      -4.9      3.584      5.859
REMARK  3 active torsions:
REMARK  status: ('A' for Active; 'I' for Inactive)
REMARK    1  A    between atoms: C_1  and  C_2 
REMARK    2  A    between atoms: C_1  and  C_3 
REMARK    3  A    between atoms: C_3  and  C_7 
ROOT
HETATM    1  C   UNL     1      62.611   8.170   5.005  1.00  0.00     0.165 C 
HETATM    2  O   UNL     1      63.248   8.457   6.021  1.00  0.00    -0.292 OA
ENDROOT
BRANCH   1   3
HETATM    3  C   UNL     1      62.305   9.250   4.033  1.00  0.00     0.025 A 
HETATM    4  C   UNL     1      62.021   9.020   2.693  1.00  0.00     0.102 A 
HETATM    5  N   UNL     1      61.698   9.997   1.808  1.00  0.00    -0.374 N 
HETATM    6  C   UNL     1      61.670  11.264   2.276  1.00  0.00     0.087 A 
ATOM      7  HN  UNL     1      61.485   9.784   0.833  1.00  0.00     0.164 HD
HETATM    8  C   UNL     1      61.957  11.599   3.589  1.00  0.00     0.018 A 
HETATM    9  C   UNL     1      62.279  10.576   4.479  1.00  0.00     0.018 A 
ENDBRANCH   1   3
BRANCH   1  10
HETATM   10  C   UNL     1      62.122   6.756   4.760  1.00  0.00     0.122 C 
BRANCH  10  11
HETATM   11  C   UNL     1      60.857   6.363   5.489  1.00  0.00    -0.051 A 
HETATM   12  C   UNL     1      60.847   6.058   6.856  1.00  0.00     0.008 A 
HETATM   13  C   UNL     1      59.641   5.852   7.534  1.00  0.00     0.007 A 
HETATM   14  C   UNL     1      58.420   5.969   6.864  1.00  0.00    -0.062 A 
HETATM   15  C   UNL     1      58.425   6.234   5.492  1.00  0.00     0.007 A 
HETATM   16  C   UNL     1      57.120   5.822   7.599  1.00  0.00     0.048 C 
HETATM   17  C   UNL     1      59.630   6.436   4.813  1.00  0.00     0.008 A 
ENDBRANCH  10  11
ENDBRANCH   1  10
TORSDOF 3
ENDMDL
