MODEL 1
REMARK VINA RESULT:      -4.4      0.000      0.000
REMARK  3 active torsions:
REMARK  status: ('A' for Active; 'I' for Inactive)
REMARK    1  A    between atoms: N_1  and  C_8 
REMARK    2  A    between atoms: C_2  and  C_8 
REMARK    3  A    between atoms: C_3  and  C_10 
ROOT
HETATM    1  C   UNL     1      63.537   7.892   4.903  1.00  0.00    -0.033 A 
HETATM    2  C   UNL     1      62.356   9.381   2.819  1.00  0.00    -0.059 A 
HETATM    3  C   UNL     1      63.431   7.355   3.613  1.00  0.00     0.009 A 
HETATM    4  C   UNL     1      62.437   9.910   4.113  1.00  0.00     0.007 A 
HETATM    5  C   UNL     1      63.018   9.170   5.147  1.00  0.00     0.009 A 
HETATM    6  C   UNL     1      62.850   8.093   2.580  1.00  0.00     0.007 A 
ENDROOT
BRANCH   1   7
HETATM    7  C   UNL     1      64.216   7.117   6.008  1.00  0.00     0.270 C 
BRANCH   7   8
HETATM    8  N   UNL     1      65.378   7.802   6.588  1.00  0.00    -0.075 N 
HETATM    9  C   UNL     1      66.498   7.874   5.657  1.00  0.00     0.267 C 
HETATM   10  H   UNL     1      65.675   7.295   7.421  1.00  0.00     0.277 HD
HETATM   11  H   UNL     1      65.097   8.757   6.813  1.00  0.00     0.277 HD
ENDBRANCH   7   8
ENDBRANCH   1   7
BRANCH   2  12
HETATM   12  C   UNL     1      61.789  10.206   1.692  1.00  0.00     0.034 C 
HETATM   13  C   UNL     1      61.763  11.688   2.038  1.00  0.00     0.010 C 
ENDBRANCH   2  12
TORSDOF 3
ENDMDL
MODEL 2
REMARK VINA RESULT:      -4.3      0.388      1.504
REMARK  3 active torsions:
REMARK  status: ('A' for Active; 'I' for Inactive)
REMARK    1  A    between atoms: N_1  and  C_8 
REMARK    2  A    between atoms: C_2  and  C_8 
REMARK    3  A    between atoms: C_3  and  C_10 
ROOT
HETATM    1  C   UNL     1      63.964   7.925   4.959  1.00  0.00    -0.033 A 
HETATM    2  C   UNL     1      62.546   9.267   2.924  1.00  0.00    -0.059 A 
HETATM    3  C   UNL     1      63.479   9.224   5.165  1.00  0.00     0.009 A 
HETATM    4  C   UNL     1      63.052   7.979   2.708  1.00  0.00     0.007 A 
HETATM    5  C   UNL     1      63.759   7.317   3.715  1.00  0.00     0.009 A 
HETATM    6  C   UNL     1      62.773   9.887   4.158  1.00  0.00     0.007 A 
ENDROOT
BRANCH   1   7
HETATM    7  C   UNL     1      64.678   7.185   6.067  1.00  0.00     0.270 C 
BRANCH   7   8
HETATM    8  N   UNL     1      65.804   7.927   6.648  1.00  0.00    -0.075 N 
HETATM    9  C   UNL     1      67.021   7.796   5.855  1.00  0.00     0.267 C 
HETATM   10  H   UNL     1      65.983   7.569   7.586  1.00  0.00     0.277 HD
HETATM   11  H   UNL     1      65.549   8.915   6.668  1.00  0.00     0.277 HD
ENDBRANCH   7   8
ENDBRANCH   1   7
BRANCH   2  12
HETATM   12  C   UNL     1      61.728   9.953   1.860  1.00  0.00     0.034 C 
HETATM   13  C   UNL     1      61.754  11.466   2.019  1.00  0.00     0.010 C 
ENDBRANCH   2  12
TORSDOF 3
ENDMDL
MODEL 3
REMARK VINA RESULT:      -3.9      2.210      4.927
REMARK  3 active torsions:
REMARK  status: ('A' for Active; 'I' for Inactive)
REMARK    1  A    between atoms: N_1  and  C_8 
REMARK    2  A    between atoms: C_2  and  C_8 
REMARK    3  A    between atoms: C_3  and  C_10 
ROOT
HETATM    1  C   UNL     1      62.848   8.573   3.451  1.00  0.00    -0.033 A 
HETATM    2  C   UNL     1      65.181   7.394   4.510  1.00  0.00    -0.059 A 
HETATM    3  C   UNL     1      63.503   9.148   4.549  1.00  0.00     0.009 A 
HETATM    4  C   UNL     1      64.514   6.804   3.429  1.00  0.00     0.007 A 
HETATM    5  C   UNL     1      63.356   7.386   2.908  1.00  0.00     0.009 A 
HETATM    6  C   UNL     1      64.661   8.567   5.071  1.00  0.00     0.007 A 
ENDROOT
BRANCH   1   7
HETATM    7  C   UNL     1      61.628   9.231   2.850  1.00  0.00     0.270 C 
BRANCH   7   8
HETATM    8  N   UNL     1      61.931  10.144   1.741  1.00  0.00    -0.075 N 
HETATM    9  C   UNL     1      61.788  11.544   2.122  1.00  0.00     0.267 C 
HETATM   10  H   UNL     1      61.292   9.946   0.970  1.00  0.00     0.277 HD
HETATM   11  H   UNL     1      62.902   9.992   1.468  1.00  0.00     0.277 HD
ENDBRANCH   7   8
ENDBRANCH   1   7
BRANCH   2  12
HETATM   12  C   UNL     1      66.467   6.802   5.028  1.00  0.00     0.034 C 
HETATM   13  C   UNL     1      67.633   7.769   4.876  1.00  0.00     0.010 C 
ENDBRANCH   2  12
TORSDOF 3
ENDMDL
MODEL 4
REMARK VINA RESULT:      -3.7     12.144     13.770
REMARK  3 active torsions:
REMARK  status: ('A' for Active; 'I' for Inactive)
REMARK    1  A    between atoms: N_1  and  C_8 
REMARK    2  A    between atoms: C_2  and  C_8 
REMARK    3  A    between atoms: C_3  and  C_10 
ROOT
HETATM    1  C   UNL     1      56.621   1.552  13.582  1.00  0.00    -0.033 A 
HETATM    2  C   UNL     1      59.276   0.761  13.048  1.00  0.00    -0.059 A 
HETATM    3  C   UNL     1      57.429   2.300  12.715  1.00  0.00     0.009 A 
HETATM    4  C   UNL     1      58.479   0.025  13.935  1.00  0.00     0.007 A 
HETATM    5  C   UNL     1      57.165   0.420  14.202  1.00  0.00     0.009 A 
HETATM    6  C   UNL     1      58.742   1.907  12.447  1.00  0.00     0.007 A 
ENDROOT
BRANCH   1   7
HETATM    7  C   UNL     1      55.183   1.945  13.828  1.00  0.00     0.270 C 
BRANCH   7   8
HETATM    8  N   UNL     1      55.029   3.135  14.674  1.00  0.00    -0.075 N 
HETATM    9  C   UNL     1      54.430   4.252  13.953  1.00  0.00     0.267 C 
HETATM   10  H   UNL     1      55.949   3.418  15.013  1.00  0.00     0.277 HD
HETATM   11  H   UNL     1      54.407   2.891  15.445  1.00  0.00     0.277 HD
ENDBRANCH   7   8
ENDBRANCH   1   7
BRANCH   2  12
HETATM   12  C   UNL     1      60.669   0.296  12.710  1.00  0.00     0.034 C 
HETATM   13  C   UNL     1      60.815  -0.008  11.226  1.00  0.00     0.010 C 
ENDBRANCH   2  12
TORSDOF 3
ENDMDL
MODEL 5
REMARK VINA RESULT:      -3.6      2.072      5.576
REMARK  3 active torsions:
REMARK  status: ('A' for Active; 'I' for Inactive)
REMARK    1  A    between atoms: N_1  and  C_8 
REMARK    2  A    between atoms: C_2  and  C_8 
REMARK    3  A    between atoms: C_3  and  C_10 
ROOT
HETATM    1  C   UNL     1      64.169   8.055   5.189  1.00  0.00    -0.033 A 
HETATM    2  C   UNL     1      66.123   6.990   6.922  1.00  0.00    -0.059 A 
HETATM    3  C   UNL     1      65.494   8.508   5.135  1.00  0.00     0.009 A 
HETATM    4  C   UNL     1      64.794   6.554   6.994  1.00  0.00     0.007 A 
HETATM    5  C   UNL     1      63.826   7.085   6.139  1.00  0.00     0.009 A 
HETATM    6  C   UNL     1      66.463   7.978   5.990  1.00  0.00     0.007 A 
ENDROOT
BRANCH   1   7
HETATM    7  C   UNL     1      63.133   8.587   4.226  1.00  0.00     0.270 C 
BRANCH   7   8
HETATM    8  N   UNL     1      62.558   9.878   4.625  1.00  0.00    -0.075 N 
HETATM    9  C   UNL     1      61.973  10.595   3.498  1.00  0.00     0.267 C 
HETATM   10  H   UNL     1      63.295  10.452   5.034  1.00  0.00     0.277 HD
HETATM   11  H   UNL     1      61.814   9.693   5.298  1.00  0.00     0.277 HD
ENDBRANCH   7   8
ENDBRANCH   1   7
BRANCH   2  12
HETATM   12  C   UNL     1      67.179   6.368   7.799  1.00  0.00     0.034 C 
HETATM   13  C   UNL     1      66.863   6.552   9.276  1.00  0.00     0.010 C 
ENDBRANCH   2  12
TORSDOF 3
ENDMDL
MODEL 6
REMARK VINA RESULT:      -3.5      2.035      2.626
REMARK  3 active torsions:
REMARK  status: ('A' for Active; 'I' for Inactive)
REMARK    1  A    between atoms: N_1  and  C_8 
REMARK    2  A    between atoms: C_2  and  C_8 
REMARK    3  A    between atoms: C_3  and  C_10 
ROOT
HETATM    1  C   UNL     1      62.434   8.333   4.187  1.00  0.00    -0.033 A 
HETATM    2  C   UNL     1      61.001   8.175   1.763  1.00  0.00    -0.059 A 
HETATM    3  C   UNL     1      62.566   9.333   3.213  1.00  0.00     0.009 A 
HETATM    4  C   UNL     1      60.887   7.162   2.724  1.00  0.00     0.007 A 
HETATM    5  C   UNL     1      61.601   7.239   3.923  1.00  0.00     0.009 A 
HETATM    6  C   UNL     1      61.854   9.256   2.014  1.00  0.00     0.007 A 
ENDROOT
BRANCH   1   7
HETATM    7  C   UNL     1      63.160   8.443   5.508  1.00  0.00     0.270 C 
BRANCH   7   8
HETATM    8  N   UNL     1      64.496   9.045   5.403  1.00  0.00    -0.075 N 
HETATM    9  C   UNL     1      65.544   8.042   5.260  1.00  0.00     0.267 C 
HETATM   10  H   UNL     1      64.675   9.590   6.246  1.00  0.00     0.277 HD
HETATM   11  H   UNL     1      64.508   9.633   4.570  1.00  0.00     0.277 HD
ENDBRANCH   7   8
ENDBRANCH   1   7
BRANCH   2  12
HETATM   12  C   UNL     1      60.180   8.123   0.500  1.00  0.00     0.034 C 
HETATM   13  C   UNL     1      58.747   7.697   0.778  1.00  0.00     0.010 C 
ENDBRANCH   2  12
TORSDOF 3
ENDMDL
MODEL 7
REMARK VINA RESULT:      -3.4      2.214      2.710
REMARK  3 active torsions:
REMARK  status: ('A' for Active; 'I' for Inactive)
REMARK    1  A    between atoms: N_1  and  C_8 
REMARK    2  A    between atoms: C_2  and  C_8 
REMARK    3  A    between atoms: C_3  and  C_10 
ROOT
HETATM    1  C   UNL     1      63.166   8.401   4.435  1.00  0.00    -0.033 A 
HETATM    2  C   UNL     1      60.625   7.729   3.410  1.00  0.00    -0.059 A 
HETATM    3  C   UNL     1      62.636   9.086   3.332  1.00  0.00     0.009 A 
HETATM    4  C   UNL     1      61.163   7.027   4.496  1.00  0.00     0.007 A 
HETATM    5  C   UNL     1      62.424   7.357   5.000  1.00  0.00     0.009 A 
HETATM    6  C   UNL     1      61.376   8.756   2.827  1.00  0.00     0.007 A 
ENDROOT
BRANCH   1   7
HETATM    7  C   UNL     1      64.503   8.795   5.017  1.00  0.00     0.270 C 
BRANCH   7   8
HETATM    8  N   UNL     1      64.921   7.970   6.158  1.00  0.00    -0.075 N 
HETATM    9  C   UNL     1      66.368   7.972   6.340  1.00  0.00     0.267 C 
HETATM   10  H   UNL     1      64.611   7.012   6.000  1.00  0.00     0.277 HD
HETATM   11  H   UNL     1      64.499   8.365   6.999  1.00  0.00     0.277 HD
ENDBRANCH   7   8
ENDBRANCH   1   7
BRANCH   2  12
HETATM   12  C   UNL     1      59.238   7.415   2.911  1.00  0.00     0.034 C 
HETATM   13  C   UNL     1      58.194   7.591   4.004  1.00  0.00     0.010 C 
ENDBRANCH   2  12
TORSDOF 3
ENDMDL
MODEL 8
REMARK VINA RESULT:      -3.4      1.918      3.179
REMARK  3 active torsions:
REMARK  status: ('A' for Active; 'I' for Inactive)
REMARK    1  A    between atoms: N_1  and  C_8 
REMARK    2  A    between atoms: C_2  and  C_8 
REMARK    3  A    between atoms: C_3  and  C_10 
ROOT
HETATM    1  C   UNL     1      65.526   6.961   6.171  1.00  0.00    -0.033 A 
HETATM    2  C   UNL     1      63.304   8.058   4.824  1.00  0.00    -0.059 A 
HETATM    3  C   UNL     1      65.622   8.203   5.529  1.00  0.00     0.009 A 
HETATM    4  C   UNL     1      63.213   6.805   5.443  1.00  0.00     0.007 A 
HETATM    5  C   UNL     1      64.316   6.260   6.106  1.00  0.00     0.009 A 
HETATM    6  C   UNL     1      64.521   8.749   4.866  1.00  0.00     0.007 A 
ENDROOT
BRANCH   1   7
HETATM    7  C   UNL     1      66.700   6.396   6.937  1.00  0.00     0.270 C 
BRANCH   7   8
HETATM    8  N   UNL     1      67.144   7.241   8.053  1.00  0.00    -0.075 N 
HETATM    9  C   UNL     1      66.971   6.587   9.345  1.00  0.00     0.267 C 
HETATM   10  H   UNL     1      66.600   8.104   8.046  1.00  0.00     0.277 HD
HETATM   11  H   UNL     1      68.139   7.427   7.927  1.00  0.00     0.277 HD
ENDBRANCH   7   8
ENDBRANCH   1   7
BRANCH   2  12
HETATM   12  C   UNL     1      62.096   8.673   4.167  1.00  0.00     0.034 C 
HETATM   13  C   UNL     1      61.058   7.622   3.800  1.00  0.00     0.010 C 
ENDBRANCH   2  12
TORSDOF 3
ENDMDL
MODEL 9
REMARK VINA RESULT:      -3.3      2.596      3.322
REMARK  3 active torsions:
REMARK  status: ('A' for Active; 'I' for Inactive)
REMARK    1  A    between atoms: N_1  and  C_8 
REMARK    2  A    between atoms: C_2  and  C_8 
REMARK    3  A    between atoms: C_3  and  C_10 
ROOT
HETATM    1  C   UNL     1      62.121   6.911   5.463  1.00  0.00    -0.033 A 
HETATM    2  C   UNL     1      62.038   9.336   4.025  1.00  0.00    -0.059 A 
HETATM    3  C   UNL     1      63.004   7.955   5.772  1.00  0.00     0.009 A 
HETATM    4  C   UNL     1      61.171   8.285   3.698  1.00  0.00     0.007 A 
HETATM    5  C   UNL     1      61.216   7.083   4.408  1.00  0.00     0.009 A 
HETATM    6  C   UNL     1      62.961   9.157   5.062  1.00  0.00     0.007 A 
ENDROOT
BRANCH   1   7
HETATM    7  C   UNL     1      62.128   5.632   6.267  1.00  0.00     0.270 C 
BRANCH   7   8
HETATM    8  N   UNL     1      60.828   4.951   6.314  1.00  0.00    -0.075 N 
HETATM    9  C   UNL     1      60.312   4.839   7.673  1.00  0.00     0.267 C 
HETATM   10  H   UNL     1      60.935   4.015   5.925  1.00  0.00     0.277 HD
HETATM   11  H   UNL     1      60.166   5.507   5.772  1.00  0.00     0.277 HD
ENDBRANCH   7   8
ENDBRANCH   1   7
BRANCH   2  12
HETATM   12  C   UNL     1      61.943  10.655   3.302  1.00  0.00     0.034 C 
HETATM   13  C   UNL     1      61.968  10.472   1.792  1.00  0.00     0.010 C 
ENDBRANCH   2  12
TORSDOF 3
ENDMDL
