MODEL 1
REMARK VINA RESULT:      -4.6      0.000      0.000
REMARK  3 active torsions:
REMARK  status: ('A' for Active; 'I' for Inactive)
REMARK    1  A    between atoms: C_1  and  C_2 
REMARK    2  A    between atoms: C_5  and  C_11 
REMARK    3  A    between atoms: N_10  and  C_11 
ROOT
HETATM    1  C   UNL     1      65.538   8.224   5.416  1.00  0.00     0.159 A 
HETATM    2  O   UNL     1      64.873   9.380   5.732  1.00  0.00    -0.308 OA
HETATM    3  C   UNL     1      64.816   7.519   4.471  1.00  0.00     0.045 A 
HETATM    4  C   UNL     1      63.729   9.407   4.987  1.00  0.00     0.079 A 
HETATM    5  C   UNL     1      63.655   8.280   4.196  1.00  0.00     0.037 A 
ENDROOT
BRANCH   4   6
HETATM    6  C   UNL     1      62.838  10.583   5.166  1.00  0.00     0.294 C 
BRANCH   6   7
HETATM    7  N   UNL     1      63.352  11.473   6.203  1.00  0.00    -0.074 N 
HETATM    8  H   UNL     1      63.033  11.151   7.117  1.00  0.00     0.274 HD
HETATM    9  H   UNL     1      63.010  12.420   6.039  1.00  0.00     0.274 HD
HETATM   10  H   UNL     1      64.372  11.470   6.179  1.00  0.00     0.274 HD
ENDBRANCH   6   7
ENDBRANCH   4   6
BRANCH   1  11
HETATM   11  C   UNL     1      66.832   7.957   6.093  1.00  0.00     0.439 C 
HETATM   12  F   UNL     1      67.909   8.125   5.283  1.00  0.00    -0.164 F 
HETATM   13  F   UNL     1      67.017   8.775   7.163  1.00  0.00    -0.164 F 
HETATM   14  F   UNL     1      66.894   6.684   6.567  1.00  0.00    -0.164 F 
ENDBRANCH   1  11
TORSDOF 3
ENDMDL
MODEL 2
REMARK VINA RESULT:      -4.4      4.471      5.380
REMARK  3 active torsions:
REMARK  status: ('A' for Active; 'I' for Inactive)
REMARK    1  A    between atoms: C_1  and  C_2 
REMARK    2  A    between atoms: C_5  and  C_11 
REMARK    3  A    between atoms: N_10  and  C_11 
ROOT
HETATM    1  C   UNL     1      61.988   9.879   2.322  1.00  0.00     0.159 A 
HETATM    2  O   UNL     1      62.495   9.465   3.525  1.00  0.00    -0.308 OA
HETATM    3  C   UNL     1      61.654  11.219   2.396  1.00  0.00     0.045 A 
HETATM    4  C   UNL     1      62.483  10.543   4.364  1.00  0.00     0.079 A 
HETATM    5  C   UNL     1      61.974  11.644   3.708  1.00  0.00     0.037 A 
ENDROOT
BRANCH   4   6
HETATM    6  C   UNL     1      62.994  10.328   5.743  1.00  0.00     0.294 C 
BRANCH   6   7
HETATM    7  N   UNL     1      63.708  11.508   6.223  1.00  0.00    -0.074 N 
HETATM    8  H   UNL     1      64.697  11.284   6.337  1.00  0.00     0.274 HD
HETATM    9  H   UNL     1      63.320  11.799   7.120  1.00  0.00     0.274 HD
HETATM   10  H   UNL     1      63.608  12.265   5.547  1.00  0.00     0.274 HD
ENDBRANCH   6   7
ENDBRANCH   4   6
BRANCH   1  11
HETATM   11  C   UNL     1      61.900   8.884   1.223  1.00  0.00     0.439 C 
HETATM   12  F   UNL     1      60.656   8.784   0.685  1.00  0.00    -0.164 F 
HETATM   13  F   UNL     1      62.743   9.189   0.200  1.00  0.00    -0.164 F 
HETATM   14  F   UNL     1      62.244   7.640   1.647  1.00  0.00    -0.164 F 
ENDBRANCH   1  11
TORSDOF 3
ENDMDL
MODEL 3
REMARK VINA RESULT:      -4.2      4.526      5.365
REMARK  3 active torsions:
REMARK  status: ('A' for Active; 'I' for Inactive)
REMARK    1  A    between atoms: C_1  and  C_2 
REMARK    2  A    between atoms: C_5  and  C_11 
REMARK    3  A    between atoms: N_10  and  C_11 
ROOT
HETATM    1  C   UNL     1      62.352   9.838   3.125  1.00  0.00     0.159 A 
HETATM    2  O   UNL     1      63.189   8.786   3.390  1.00  0.00    -0.308 OA
HETATM    3  C   UNL     1      62.219  10.621   4.257  1.00  0.00     0.045 A 
HETATM    4  C   UNL     1      63.588   8.902   4.691  1.00  0.00     0.079 A 
HETATM    5  C   UNL     1      63.014  10.019   5.261  1.00  0.00     0.037 A 
ENDROOT
BRANCH   4   6
HETATM    6  C   UNL     1      64.511   7.858   5.207  1.00  0.00     0.294 C 
BRANCH   6   7
HETATM    7  N   UNL     1      65.495   8.438   6.118  1.00  0.00    -0.074 N 
HETATM    8  H   UNL     1      65.221   8.245   7.082  1.00  0.00     0.274 HD
HETATM    9  H   UNL     1      65.540   9.446   5.973  1.00  0.00     0.274 HD
HETATM   10  H   UNL     1      66.410   8.027   5.936  1.00  0.00     0.274 HD
ENDBRANCH   6   7
ENDBRANCH   4   6
BRANCH   1  11
HETATM   11  C   UNL     1      61.780   9.948   1.759  1.00  0.00     0.439 C 
HETATM   12  F   UNL     1      60.679   9.175   1.572  1.00  0.00    -0.164 F 
HETATM   13  F   UNL     1      61.415  11.225   1.468  1.00  0.00    -0.164 F 
HETATM   14  F   UNL     1      62.681   9.580   0.809  1.00  0.00    -0.164 F 
ENDBRANCH   1  11
TORSDOF 3
ENDMDL
MODEL 4
REMARK VINA RESULT:      -4.0      3.753      4.534
REMARK  3 active torsions:
REMARK  status: ('A' for Active; 'I' for Inactive)
REMARK    1  A    between atoms: C_1  and  C_2 
REMARK    2  A    between atoms: C_5  and  C_11 
REMARK    3  A    between atoms: N_10  and  C_11 
ROOT
HETATM    1  C   UNL     1      63.218   9.184   4.228  1.00  0.00     0.159 A 
HETATM    2  O   UNL     1      64.138   9.324   5.234  1.00  0.00    -0.308 OA
HETATM    3  C   UNL     1      63.439   7.992   3.562  1.00  0.00     0.045 A 
HETATM    4  C   UNL     1      64.943   8.221   5.205  1.00  0.00     0.079 A 
HETATM    5  C   UNL     1      64.546   7.375   4.192  1.00  0.00     0.037 A 
ENDROOT
BRANCH   4   6
HETATM    6  C   UNL     1      66.028   8.154   6.218  1.00  0.00     0.294 C 
BRANCH   6   7
HETATM    7  N   UNL     1      65.690   7.211   7.281  1.00  0.00    -0.074 N 
HETATM    8  H   UNL     1      65.008   7.637   7.910  1.00  0.00     0.274 HD
HETATM    9  H   UNL     1      66.532   6.974   7.806  1.00  0.00     0.274 HD
HETATM   10  H   UNL     1      65.294   6.365   6.873  1.00  0.00     0.274 HD
ENDBRANCH   6   7
ENDBRANCH   4   6
BRANCH   1  11
HETATM   11  C   UNL     1      62.211  10.260   4.048  1.00  0.00     0.439 C 
HETATM   12  F   UNL     1      62.288  11.233   4.993  1.00  0.00    -0.164 F 
HETATM   13  F   UNL     1      62.343  10.875   2.843  1.00  0.00    -0.164 F 
HETATM   14  F   UNL     1      60.944   9.771   4.093  1.00  0.00    -0.164 F 
ENDBRANCH   1  11
TORSDOF 3
ENDMDL
MODEL 5
REMARK VINA RESULT:      -4.0      3.895      4.756
REMARK  3 active torsions:
REMARK  status: ('A' for Active; 'I' for Inactive)
REMARK    1  A    between atoms: C_1  and  C_2 
REMARK    2  A    between atoms: C_5  and  C_11 
REMARK    3  A    between atoms: N_10  and  C_11 
ROOT
HETATM    1  C   UNL     1      62.536  10.080   3.853  1.00  0.00     0.159 A 
HETATM    2  O   UNL     1      62.633   9.092   2.907  1.00  0.00    -0.308 OA
HETATM    3  C   UNL     1      61.958  11.203   3.291  1.00  0.00     0.045 A 
HETATM    4  C   UNL     1      62.117   9.590   1.745  1.00  0.00     0.079 A 
HETATM    5  C   UNL     1      61.689  10.887   1.938  1.00  0.00     0.037 A 
ENDROOT
BRANCH   4   6
HETATM    6  C   UNL     1      62.119   8.685   0.567  1.00  0.00     0.294 C 
BRANCH   6   7
HETATM    7  N   UNL     1      60.858   7.956   0.469  1.00  0.00    -0.074 N 
HETATM    8  H   UNL     1      60.333   8.065   1.338  1.00  0.00     0.274 HD
HETATM    9  H   UNL     1      61.048   6.967   0.310  1.00  0.00     0.274 HD
HETATM   10  H   UNL     1      60.309   8.326  -0.307  1.00  0.00     0.274 HD
ENDBRANCH   6   7
ENDBRANCH   4   6
BRANCH   1  11
HETATM   11  C   UNL     1      63.028   9.785   5.222  1.00  0.00     0.439 C 
HETATM   12  F   UNL     1      62.769  10.777   6.114  1.00  0.00    -0.164 F 
HETATM   13  F   UNL     1      62.467   8.653   5.725  1.00  0.00    -0.164 F 
HETATM   14  F   UNL     1      64.373   9.587   5.238  1.00  0.00    -0.164 F 
ENDBRANCH   1  11
TORSDOF 3
ENDMDL
MODEL 6
REMARK VINA RESULT:      -3.9      2.577      3.250
REMARK  3 active torsions:
REMARK  status: ('A' for Active; 'I' for Inactive)
REMARK    1  A    between atoms: C_1  and  C_2 
REMARK    2  A    between atoms: C_5  and  C_11 
REMARK    3  A    between atoms: N_10  and  C_11 
ROOT
HETATM    1  C   UNL     1      66.280   6.904   7.621  1.00  0.00     0.159 A 
HETATM    2  O   UNL     1      64.934   6.924   7.366  1.00  0.00    -0.308 OA
HETATM    3  C   UNL     1      66.958   7.514   6.582  1.00  0.00     0.045 A 
HETATM    4  C   UNL     1      64.758   7.547   6.164  1.00  0.00     0.079 A 
HETATM    5  C   UNL     1      65.978   7.928   5.647  1.00  0.00     0.037 A 
ENDROOT
BRANCH   4   6
HETATM    6  C   UNL     1      63.361   7.686   5.676  1.00  0.00     0.294 C 
BRANCH   6   7
HETATM    7  N   UNL     1      62.533   8.382   6.658  1.00  0.00    -0.074 N 
HETATM    8  H   UNL     1      62.618   9.389   6.521  1.00  0.00     0.274 HD
HETATM    9  H   UNL     1      62.845   8.140   7.598  1.00  0.00     0.274 HD
HETATM   10  H   UNL     1      61.559   8.104   6.541  1.00  0.00     0.274 HD
ENDBRANCH   6   7
ENDBRANCH   4   6
BRANCH   1  11
HETATM   11  C   UNL     1      66.741   6.278   8.886  1.00  0.00     0.439 C 
HETATM   12  F   UNL     1      66.520   4.939   8.938  1.00  0.00    -0.164 F 
HETATM   13  F   UNL     1      68.074   6.461   9.081  1.00  0.00    -0.164 F 
HETATM   14  F   UNL     1      66.117   6.819   9.967  1.00  0.00    -0.164 F 
ENDBRANCH   1  11
TORSDOF 3
ENDMDL
MODEL 7
REMARK VINA RESULT:      -3.9      3.663      4.446
REMARK  3 active torsions:
REMARK  status: ('A' for Active; 'I' for Inactive)
REMARK    1  A    between atoms: C_1  and  C_2 
REMARK    2  A    between atoms: C_5  and  C_11 
REMARK    3  A    between atoms: N_10  and  C_11 
ROOT
HETATM    1  C   UNL     1      63.185   8.898   4.752  1.00  0.00     0.159 A 
HETATM    2  O   UNL     1      64.544   9.070   4.805  1.00  0.00    -0.308 OA
HETATM    3  C   UNL     1      62.831   7.776   5.477  1.00  0.00     0.045 A 
HETATM    4  C   UNL     1      65.052   8.054   5.564  1.00  0.00     0.079 A 
HETATM    5  C   UNL     1      64.031   7.236   5.999  1.00  0.00     0.037 A 
ENDROOT
BRANCH   4   6
HETATM    6  C   UNL     1      66.524   8.034   5.761  1.00  0.00     0.294 C 
BRANCH   6   7
HETATM    7  N   UNL     1      66.879   8.538   7.086  1.00  0.00    -0.074 N 
HETATM    8  H   UNL     1      66.093   8.402   7.723  1.00  0.00     0.274 HD
HETATM    9  H   UNL     1      67.098   9.532   7.024  1.00  0.00     0.274 HD
HETATM   10  H   UNL     1      67.692   8.031   7.436  1.00  0.00     0.274 HD
ENDBRANCH   6   7
ENDBRANCH   4   6
BRANCH   1  11
HETATM   11  C   UNL     1      62.387   9.887   3.983  1.00  0.00     0.439 C 
HETATM   12  F   UNL     1      62.682   9.904   2.657  1.00  0.00    -0.164 F 
HETATM   13  F   UNL     1      61.053   9.642   4.082  1.00  0.00    -0.164 F 
HETATM   14  F   UNL     1      62.580  11.151   4.443  1.00  0.00    -0.164 F 
ENDBRANCH   1  11
TORSDOF 3
ENDMDL
MODEL 8
REMARK VINA RESULT:      -3.9      3.449      4.400
REMARK  3 active torsions:
REMARK  status: ('A' for Active; 'I' for Inactive)
REMARK    1  A    between atoms: C_1  and  C_2 
REMARK    2  A    between atoms: C_5  and  C_11 
REMARK    3  A    between atoms: N_10  and  C_11 
ROOT
HETATM    1  C   UNL     1      65.064   8.007   5.625  1.00  0.00     0.159 A 
HETATM    2  O   UNL     1      64.967   7.523   6.904  1.00  0.00    -0.308 OA
HETATM    3  C   UNL     1      66.331   7.758   5.131  1.00  0.00     0.045 A 
HETATM    4  C   UNL     1      66.174   6.966   7.220  1.00  0.00     0.079 A 
HETATM    5  C   UNL     1      67.042   7.088   6.155  1.00  0.00     0.037 A 
ENDROOT
BRANCH   4   6
HETATM    6  C   UNL     1      66.305   6.370   8.575  1.00  0.00     0.294 C 
BRANCH   6   7
HETATM    7  N   UNL     1      66.180   4.916   8.518  1.00  0.00    -0.074 N 
HETATM    8  H   UNL     1      65.430   4.664   7.874  1.00  0.00     0.274 HD
HETATM    9  H   UNL     1      65.963   4.557   9.448  1.00  0.00     0.274 HD
HETATM   10  H   UNL     1      67.057   4.511   8.193  1.00  0.00     0.274 HD
ENDBRANCH   6   7
ENDBRANCH   4   6
BRANCH   1  11
HETATM   11  C   UNL     1      63.870   8.663   5.036  1.00  0.00     0.439 C 
HETATM   12  F   UNL     1      62.696   8.189   5.529  1.00  0.00    -0.164 F 
HETATM   13  F   UNL     1      63.872  10.005   5.257  1.00  0.00    -0.164 F 
HETATM   14  F   UNL     1      63.823   8.497   3.687  1.00  0.00    -0.164 F 
ENDBRANCH   1  11
TORSDOF 3
ENDMDL
MODEL 9
REMARK VINA RESULT:      -3.8      2.915      3.579
REMARK  3 active torsions:
REMARK  status: ('A' for Active; 'I' for Inactive)
REMARK    1  A    between atoms: C_1  and  C_2 
REMARK    2  A    between atoms: C_5  and  C_11 
REMARK    3  A    between atoms: N_10  and  C_11 
ROOT
HETATM    1  C   UNL     1      63.501   8.985   4.492  1.00  0.00     0.159 A 
HETATM    2  O   UNL     1      63.134   8.665   3.211  1.00  0.00    -0.308 OA
HETATM    3  C   UNL     1      62.810  10.109   4.904  1.00  0.00     0.045 A 
HETATM    4  C   UNL     1      62.210   9.587   2.811  1.00  0.00     0.079 A 
HETATM    5  C   UNL     1      61.981  10.495   3.824  1.00  0.00     0.037 A 
ENDROOT
BRANCH   4   6
HETATM    6  C   UNL     1      61.663   9.439   1.437  1.00  0.00     0.294 C 
BRANCH   6   7
HETATM    7  N   UNL     1      60.334   8.834   1.469  1.00  0.00    -0.074 N 
HETATM    8  H   UNL     1      60.392   7.869   1.140  1.00  0.00     0.274 HD
HETATM    9  H   UNL     1      59.706   9.361   0.863  1.00  0.00     0.274 HD
HETATM   10  H   UNL     1      59.977   8.846   2.424  1.00  0.00     0.274 HD
ENDBRANCH   6   7
ENDBRANCH   4   6
BRANCH   1  11
HETATM   11  C   UNL     1      64.502   8.121   5.167  1.00  0.00     0.439 C 
HETATM   12  F   UNL     1      63.960   7.296   6.100  1.00  0.00    -0.164 F 
HETATM   13  F   UNL     1      65.160   7.327   4.280  1.00  0.00    -0.164 F 
HETATM   14  F   UNL     1      65.452   8.858   5.801  1.00  0.00    -0.164 F 
ENDBRANCH   1  11
TORSDOF 3
ENDMDL
