MODEL 1
REMARK VINA RESULT:      -5.5      0.000      0.000
REMARK  5 active torsions:
REMARK  status: ('A' for Active; 'I' for Inactive)
REMARK    1  A    between atoms: N_1  and  C_10 
REMARK    2  A    between atoms: C_4  and  C_5 
REMARK    3  A    between atoms: C_4  and  C_7 
REMARK    4  A    between atoms: N_6  and  C_11 
REMARK    5  A    between atoms: C_10  and  C_11 
ROOT
HETATM    1  N   UNL     1      66.211   6.486   5.967  1.00  0.00    -0.070 N 
HETATM    2  C   UNL     1      65.122   6.565   6.955  1.00  0.00     0.235 C 
HETATM    3  C   UNL     1      66.143   7.615   5.020  1.00  0.00     0.235 C 
HETATM    4  C   UNL     1      63.646   7.794   5.320  1.00  0.00    -0.007 C 
HETATM    5  C   UNL     1      63.744   6.611   6.289  1.00  0.00     0.032 C 
HETATM    6  C   UNL     1      64.794   7.690   4.306  1.00  0.00     0.032 C 
HETATM    7  H   UNL     1      66.090   5.608   5.462  1.00  0.00     0.279 HD
ENDROOT
BRANCH   1   8
HETATM    8  C   UNL     1      67.542   6.484   6.619  1.00  0.00     0.262 C 
BRANCH   8   9
HETATM    9  C   UNL     1      67.608   5.642   7.910  1.00  0.00     0.257 C 
BRANCH   9  10
HETATM   10  N   UNL     1      68.075   6.437   9.051  1.00  0.00    -0.078 N 
HETATM   11  H   UNL     1      68.990   6.835   8.837  1.00  0.00     0.274 HD
HETATM   12  H   UNL     1      68.149   5.839   9.874  1.00  0.00     0.274 HD
HETATM   13  H   UNL     1      67.412   7.189   9.235  1.00  0.00     0.274 HD
ENDBRANCH   9  10
ENDBRANCH   8   9
ENDBRANCH   1   8
BRANCH   4  14
HETATM   14  C   UNL     1      62.262   7.843   4.644  1.00  0.00     0.043 C 
BRANCH  14  15
HETATM   15  C   UNL     1      62.090   9.030   3.724  1.00  0.00    -0.058 A 
HETATM   16  C   UNL     1      62.036   8.847   2.337  1.00  0.00     0.007 A 
HETATM   17  C   UNL     1      61.929   9.946   1.480  1.00  0.00     0.001 A 
HETATM   18  C   UNL     1      61.871  11.236   2.004  1.00  0.00     0.000 A 
HETATM   19  C   UNL     1      61.906  11.430   3.383  1.00  0.00     0.001 A 
HETATM   20  C   UNL     1      62.004  10.333   4.239  1.00  0.00     0.007 A 
ENDBRANCH  14  15
ENDBRANCH   4  14
TORSDOF 5
ENDMDL
MODEL 2
REMARK VINA RESULT:      -5.5      0.555      1.248
REMARK  5 active torsions:
REMARK  status: ('A' for Active; 'I' for Inactive)
REMARK    1  A    between atoms: N_1  and  C_10 
REMARK    2  A    between atoms: C_4  and  C_5 
REMARK    3  A    between atoms: C_4  and  C_7 
REMARK    4  A    between atoms: N_6  and  C_11 
REMARK    5  A    between atoms: C_10  and  C_11 
ROOT
HETATM    1  N   UNL     1      66.365   7.024   6.441  1.00  0.00    -0.070 N 
HETATM    2  C   UNL     1      66.248   8.009   5.353  1.00  0.00     0.235 C 
HETATM    3  C   UNL     1      65.362   5.953   6.289  1.00  0.00     0.235 C 
HETATM    4  C   UNL     1      63.787   7.517   5.091  1.00  0.00    -0.007 C 
HETATM    5  C   UNL     1      64.842   8.613   5.275  1.00  0.00     0.032 C 
HETATM    6  C   UNL     1      63.936   6.502   6.234  1.00  0.00     0.032 C 
HETATM    7  H   UNL     1      66.202   7.525   7.314  1.00  0.00     0.279 HD
ENDROOT
BRANCH   1   8
HETATM    8  C   UNL     1      67.715   6.416   6.483  1.00  0.00     0.262 C 
BRANCH   8   9
HETATM    9  C   UNL     1      67.993   5.590   7.757  1.00  0.00     0.257 C 
BRANCH   9  10
HETATM   10  N   UNL     1      67.945   6.423   8.963  1.00  0.00    -0.078 N 
HETATM   11  H   UNL     1      67.637   5.857   9.755  1.00  0.00     0.274 HD
HETATM   12  H   UNL     1      67.289   7.192   8.820  1.00  0.00     0.274 HD
HETATM   13  H   UNL     1      68.873   6.799   9.154  1.00  0.00     0.274 HD
ENDBRANCH   9  10
ENDBRANCH   8   9
ENDBRANCH   1   8
BRANCH   4  14
HETATM   14  C   UNL     1      62.371   8.118   5.015  1.00  0.00     0.043 C 
BRANCH  14  15
HETATM   15  C   UNL     1      62.195   9.084   3.866  1.00  0.00    -0.058 A 
HETATM   16  C   UNL     1      62.265   8.631   2.543  1.00  0.00     0.007 A 
HETATM   17  C   UNL     1      62.154   9.528   1.478  1.00  0.00     0.001 A 
HETATM   18  C   UNL     1      61.968  10.887   1.728  1.00  0.00     0.000 A 
HETATM   19  C   UNL     1      61.877  11.349   3.040  1.00  0.00     0.001 A 
HETATM   20  C   UNL     1      61.980  10.451   4.103  1.00  0.00     0.007 A 
ENDBRANCH  14  15
ENDBRANCH   4  14
TORSDOF 5
ENDMDL
MODEL 3
REMARK VINA RESULT:      -5.1      1.424      2.430
REMARK  5 active torsions:
REMARK  status: ('A' for Active; 'I' for Inactive)
REMARK    1  A    between atoms: N_1  and  C_10 
REMARK    2  A    between atoms: C_4  and  C_5 
REMARK    3  A    between atoms: C_4  and  C_7 
REMARK    4  A    between atoms: N_6  and  C_11 
REMARK    5  A    between atoms: C_10  and  C_11 
ROOT
HETATM    1  N   UNL     1      64.949   7.113   6.946  1.00  0.00    -0.070 N 
HETATM    2  C   UNL     1      65.617   7.828   5.846  1.00  0.00     0.235 C 
HETATM    3  C   UNL     1      63.692   6.496   6.485  1.00  0.00     0.235 C 
HETATM    4  C   UNL     1      63.408   8.262   4.707  1.00  0.00    -0.007 C 
HETATM    5  C   UNL     1      64.709   8.889   5.217  1.00  0.00     0.032 C 
HETATM    6  C   UNL     1      62.737   7.520   5.872  1.00  0.00     0.032 C 
HETATM    7  H   UNL     1      64.746   7.804   7.669  1.00  0.00     0.279 HD
ENDROOT
BRANCH   1   8
HETATM    8  C   UNL     1      65.819   6.061   7.522  1.00  0.00     0.262 C 
BRANCH   8   9
HETATM    9  C   UNL     1      66.458   6.442   8.873  1.00  0.00     0.257 C 
BRANCH   9  10
HETATM   10  N   UNL     1      67.921   6.499   8.784  1.00  0.00    -0.078 N 
HETATM   11  H   UNL     1      68.298   5.550   8.775  1.00  0.00     0.274 HD
HETATM   12  H   UNL     1      68.292   7.005   9.589  1.00  0.00     0.274 HD
HETATM   13  H   UNL     1      68.191   6.979   7.926  1.00  0.00     0.274 HD
ENDBRANCH   9  10
ENDBRANCH   8   9
ENDBRANCH   1   8
BRANCH   4  14
HETATM   14  C   UNL     1      62.490   9.326   4.076  1.00  0.00     0.043 C 
BRANCH  14  15
HETATM   15  C   UNL     1      61.782   8.840   2.831  1.00  0.00    -0.058 A 
HETATM   16  C   UNL     1      60.556   8.172   2.930  1.00  0.00     0.007 A 
HETATM   17  C   UNL     1      59.924   7.676   1.787  1.00  0.00     0.001 A 
HETATM   18  C   UNL     1      60.512   7.849   0.535  1.00  0.00     0.000 A 
HETATM   19  C   UNL     1      61.722   8.529   0.421  1.00  0.00     0.001 A 
HETATM   20  C   UNL     1      62.350   9.031   1.562  1.00  0.00     0.007 A 
ENDBRANCH  14  15
ENDBRANCH   4  14
TORSDOF 5
ENDMDL
MODEL 4
REMARK VINA RESULT:      -5.0      1.692      2.459
REMARK  5 active torsions:
REMARK  status: ('A' for Active; 'I' for Inactive)
REMARK    1  A    between atoms: N_1  and  C_10 
REMARK    2  A    between atoms: C_4  and  C_5 
REMARK    3  A    between atoms: C_4  and  C_7 
REMARK    4  A    between atoms: N_6  and  C_11 
REMARK    5  A    between atoms: C_10  and  C_11 
ROOT
HETATM    1  N   UNL     1      66.327   5.837   5.514  1.00  0.00    -0.070 N 
HETATM    2  C   UNL     1      66.577   7.168   4.935  1.00  0.00     0.235 C 
HETATM    3  C   UNL     1      65.007   5.325   5.103  1.00  0.00     0.235 C 
HETATM    4  C   UNL     1      64.105   7.668   4.868  1.00  0.00    -0.007 C 
HETATM    5  C   UNL     1      65.482   8.171   5.311  1.00  0.00     0.032 C 
HETATM    6  C   UNL     1      63.874   6.279   5.481  1.00  0.00     0.032 C 
HETATM    7  H   UNL     1      66.352   5.946   6.528  1.00  0.00     0.279 HD
ENDROOT
BRANCH   1   8
HETATM    8  C   UNL     1      67.369   4.863   5.113  1.00  0.00     0.262 C 
BRANCH   8   9
HETATM    9  C   UNL     1      67.009   4.039   3.859  1.00  0.00     0.257 C 
BRANCH   9  10
HETATM   10  N   UNL     1      67.623   4.598   2.649  1.00  0.00    -0.078 N 
HETATM   11  H   UNL     1      68.403   4.007   2.359  1.00  0.00     0.274 HD
HETATM   12  H   UNL     1      67.966   5.539   2.846  1.00  0.00     0.274 HD
HETATM   13  H   UNL     1      66.930   4.637   1.903  1.00  0.00     0.274 HD
ENDBRANCH   9  10
ENDBRANCH   8   9
ENDBRANCH   1   8
BRANCH   4  14
HETATM   14  C   UNL     1      63.000   8.672   5.246  1.00  0.00     0.043 C 
BRANCH  14  15
HETATM   15  C   UNL     1      62.532   9.511   4.079  1.00  0.00    -0.058 A 
HETATM   16  C   UNL     1      62.410   8.945   2.804  1.00  0.00     0.007 A 
HETATM   17  C   UNL     1      62.027   9.728   1.713  1.00  0.00     0.001 A 
HETATM   18  C   UNL     1      61.759  11.085   1.889  1.00  0.00     0.000 A 
HETATM   19  C   UNL     1      61.858  11.657   3.155  1.00  0.00     0.001 A 
HETATM   20  C   UNL     1      62.232  10.872   4.246  1.00  0.00     0.007 A 
ENDBRANCH  14  15
ENDBRANCH   4  14
TORSDOF 5
ENDMDL
MODEL 5
REMARK VINA RESULT:      -4.4      3.792      5.585
REMARK  5 active torsions:
REMARK  status: ('A' for Active; 'I' for Inactive)
REMARK    1  A    between atoms: N_1  and  C_10 
REMARK    2  A    between atoms: C_4  and  C_5 
REMARK    3  A    between atoms: C_4  and  C_7 
REMARK    4  A    between atoms: N_6  and  C_11 
REMARK    5  A    between atoms: C_10  and  C_11 
ROOT
HETATM    1  N   UNL     1      59.395   6.171   6.103  1.00  0.00    -0.070 N 
HETATM    2  C   UNL     1      60.678   5.726   6.671  1.00  0.00     0.235 C 
HETATM    3  C   UNL     1      59.443   6.164   4.629  1.00  0.00     0.235 C 
HETATM    4  C   UNL     1      61.933   6.564   4.650  1.00  0.00    -0.007 C 
HETATM    5  C   UNL     1      61.850   6.580   6.179  1.00  0.00     0.032 C 
HETATM    6  C   UNL     1      60.582   7.026   4.085  1.00  0.00     0.032 C 
HETATM    7  H   UNL     1      59.237   7.122   6.435  1.00  0.00     0.279 HD
ENDROOT
BRANCH   1   8
HETATM    8  C   UNL     1      58.272   5.314   6.552  1.00  0.00     0.262 C 
BRANCH   8   9
HETATM    9  C   UNL     1      56.896   6.011   6.516  1.00  0.00     0.257 C 
BRANCH   9  10
HETATM   10  N   UNL     1      56.918   7.289   7.238  1.00  0.00    -0.078 N 
HETATM   11  H   UNL     1      56.050   7.795   7.058  1.00  0.00     0.274 HD
HETATM   12  H   UNL     1      57.709   7.847   6.917  1.00  0.00     0.274 HD
HETATM   13  H   UNL     1      57.009   7.113   8.237  1.00  0.00     0.274 HD
ENDBRANCH   9  10
ENDBRANCH   8   9
ENDBRANCH   1   8
BRANCH   4  14
HETATM   14  C   UNL     1      63.109   7.424   4.149  1.00  0.00     0.043 C 
BRANCH  14  15
HETATM   15  C   UNL     1      62.672   8.751   3.569  1.00  0.00    -0.058 A 
HETATM   16  C   UNL     1      62.475   9.857   4.405  1.00  0.00     0.007 A 
HETATM   17  C   UNL     1      62.022  11.070   3.881  1.00  0.00     0.001 A 
HETATM   18  C   UNL     1      61.767  11.188   2.515  1.00  0.00     0.000 A 
HETATM   19  C   UNL     1      61.977  10.100   1.671  1.00  0.00     0.001 A 
HETATM   20  C   UNL     1      62.437   8.891   2.193  1.00  0.00     0.007 A 
ENDBRANCH  14  15
ENDBRANCH   4  14
TORSDOF 5
ENDMDL
MODEL 6
REMARK VINA RESULT:      -4.4      1.823      2.598
REMARK  5 active torsions:
REMARK  status: ('A' for Active; 'I' for Inactive)
REMARK    1  A    between atoms: N_1  and  C_10 
REMARK    2  A    between atoms: C_4  and  C_5 
REMARK    3  A    between atoms: C_4  and  C_7 
REMARK    4  A    between atoms: N_6  and  C_11 
REMARK    5  A    between atoms: C_10  and  C_11 
ROOT
HETATM    1  N   UNL     1      65.842   6.431   5.091  1.00  0.00    -0.070 N 
HETATM    2  C   UNL     1      64.792   5.862   4.230  1.00  0.00     0.235 C 
HETATM    3  C   UNL     1      65.294   7.493   5.955  1.00  0.00     0.235 C 
HETATM    4  C   UNL     1      63.507   8.033   4.259  1.00  0.00    -0.007 C 
HETATM    5  C   UNL     1      64.106   6.933   3.377  1.00  0.00     0.032 C 
HETATM    6  C   UNL     1      64.621   8.604   5.148  1.00  0.00     0.032 C 
HETATM    7  H   UNL     1      66.551   6.824   4.473  1.00  0.00     0.279 HD
ENDROOT
BRANCH   1   8
HETATM    8  C   UNL     1      66.471   5.394   5.943  1.00  0.00     0.262 C 
BRANCH   8   9
HETATM    9  C   UNL     1      66.544   5.767   7.438  1.00  0.00     0.257 C 
BRANCH   9  10
HETATM   10  N   UNL     1      66.106   4.659   8.294  1.00  0.00    -0.078 N 
HETATM   11  H   UNL     1      65.249   4.924   8.781  1.00  0.00     0.274 HD
HETATM   12  H   UNL     1      66.834   4.451   8.978  1.00  0.00     0.274 HD
HETATM   13  H   UNL     1      65.932   3.835   7.721  1.00  0.00     0.274 HD
ENDBRANCH   9  10
ENDBRANCH   8   9
ENDBRANCH   1   8
BRANCH   4  14
HETATM   14  C   UNL     1      62.820   9.115   3.406  1.00  0.00     0.043 C 
BRANCH  14  15
HETATM   15  C   UNL     1      61.572   8.621   2.709  1.00  0.00    -0.058 A 
HETATM   16  C   UNL     1      60.578   7.949   3.431  1.00  0.00     0.007 A 
HETATM   17  C   UNL     1      59.448   7.446   2.782  1.00  0.00     0.001 A 
HETATM   18  C   UNL     1      59.301   7.615   1.406  1.00  0.00     0.000 A 
HETATM   19  C   UNL     1      60.273   8.297   0.679  1.00  0.00     0.001 A 
HETATM   20  C   UNL     1      61.398   8.807   1.328  1.00  0.00     0.007 A 
ENDBRANCH  14  15
ENDBRANCH   4  14
TORSDOF 5
ENDMDL
MODEL 7
REMARK VINA RESULT:      -4.4      2.264      2.938
REMARK  5 active torsions:
REMARK  status: ('A' for Active; 'I' for Inactive)
REMARK    1  A    between atoms: N_1  and  C_10 
REMARK    2  A    between atoms: C_4  and  C_5 
REMARK    3  A    between atoms: C_4  and  C_7 
REMARK    4  A    between atoms: N_6  and  C_11 
REMARK    5  A    between atoms: C_10  and  C_11 
ROOT
HETATM    1  N   UNL     1      64.002   4.219   4.444  1.00  0.00    -0.070 N 
HETATM    2  C   UNL     1      62.559   4.499   4.362  1.00  0.00     0.235 C 
HETATM    3  C   UNL     1      64.775   5.471   4.543  1.00  0.00     0.235 C 
HETATM    4  C   UNL     1      62.994   6.740   3.286  1.00  0.00    -0.007 C 
HETATM    5  C   UNL     1      62.220   5.422   3.186  1.00  0.00     0.032 C 
HETATM    6  C   UNL     1      64.493   6.418   3.376  1.00  0.00     0.032 C 
HETATM    7  H   UNL     1      64.257   3.726   3.588  1.00  0.00     0.279 HD
ENDROOT
BRANCH   1   8
HETATM    8  C   UNL     1      64.326   3.360   5.607  1.00  0.00     0.262 C 
BRANCH   8   9
HETATM    9  C   UNL     1      64.395   4.118   6.948  1.00  0.00     0.257 C 
BRANCH   9  10
HETATM   10  N   UNL     1      65.666   3.878   7.642  1.00  0.00    -0.078 N 
HETATM   11  H   UNL     1      65.575   3.058   8.243  1.00  0.00     0.274 HD
HETATM   12  H   UNL     1      65.902   4.692   8.210  1.00  0.00     0.274 HD
HETATM   13  H   UNL     1      66.402   3.716   6.956  1.00  0.00     0.274 HD
ENDBRANCH   9  10
ENDBRANCH   8   9
ENDBRANCH   1   8
BRANCH   4  14
HETATM   14  C   UNL     1      62.659   7.670   2.104  1.00  0.00     0.043 C 
BRANCH  14  15
HETATM   15  C   UNL     1      62.402   9.099   2.525  1.00  0.00    -0.058 A 
HETATM   16  C   UNL     1      62.498   9.468   3.873  1.00  0.00     0.007 A 
HETATM   17  C   UNL     1      62.211  10.775   4.273  1.00  0.00     0.001 A 
HETATM   18  C   UNL     1      61.830  11.725   3.327  1.00  0.00     0.000 A 
HETATM   19  C   UNL     1      61.749  11.376   1.981  1.00  0.00     0.001 A 
HETATM   20  C   UNL     1      62.043  10.073   1.580  1.00  0.00     0.007 A 
ENDBRANCH  14  15
ENDBRANCH   4  14
TORSDOF 5
ENDMDL
MODEL 8
REMARK VINA RESULT:      -4.4      3.612      7.042
REMARK  5 active torsions:
REMARK  status: ('A' for Active; 'I' for Inactive)
REMARK    1  A    between atoms: N_1  and  C_10 
REMARK    2  A    between atoms: C_4  and  C_5 
REMARK    3  A    between atoms: C_4  and  C_7 
REMARK    4  A    between atoms: N_6  and  C_11 
REMARK    5  A    between atoms: C_10  and  C_11 
ROOT
HETATM    1  N   UNL     1      60.195   8.410   2.044  1.00  0.00    -0.070 N 
HETATM    2  C   UNL     1      60.594   7.251   2.859  1.00  0.00     0.235 C 
HETATM    3  C   UNL     1      61.380   9.132   1.543  1.00  0.00     0.235 C 
HETATM    4  C   UNL     1      62.748   8.384   3.525  1.00  0.00    -0.007 C 
HETATM    5  C   UNL     1      61.498   7.655   4.028  1.00  0.00     0.032 C 
HETATM    6  C   UNL     1      62.302   9.583   2.675  1.00  0.00     0.032 C 
HETATM    7  H   UNL     1      59.650   9.025   2.649  1.00  0.00     0.279 HD
ENDROOT
BRANCH   1   8
HETATM    8  C   UNL     1      59.355   8.005   0.893  1.00  0.00     0.262 C 
BRANCH   8   9
HETATM    9  C   UNL     1      58.063   7.262   1.288  1.00  0.00     0.257 C 
BRANCH   9  10
HETATM   10  N   UNL     1      57.919   5.999   0.556  1.00  0.00    -0.078 N 
HETATM   11  H   UNL     1      57.070   6.029  -0.012  1.00  0.00     0.274 HD
HETATM   12  H   UNL     1      57.856   5.227   1.219  1.00  0.00     0.274 HD
HETATM   13  H   UNL     1      58.727   5.863  -0.049  1.00  0.00     0.274 HD
ENDBRANCH   9  10
ENDBRANCH   8   9
ENDBRANCH   1   8
BRANCH   4  14
HETATM   14  C   UNL     1      63.658   8.796   4.697  1.00  0.00     0.043 C 
BRANCH  14  15
HETATM   15  C   UNL     1      64.930   7.983   4.778  1.00  0.00    -0.058 A 
HETATM   16  C   UNL     1      65.917   8.304   5.718  1.00  0.00     0.007 A 
HETATM   17  C   UNL     1      67.115   7.588   5.763  1.00  0.00     0.001 A 
HETATM   18  C   UNL     1      67.335   6.541   4.869  1.00  0.00     0.000 A 
HETATM   19  C   UNL     1      66.354   6.199   3.941  1.00  0.00     0.001 A 
HETATM   20  C   UNL     1      65.154   6.909   3.902  1.00  0.00     0.007 A 
ENDBRANCH  14  15
ENDBRANCH   4  14
TORSDOF 5
ENDMDL
MODEL 9
REMARK VINA RESULT:      -4.4      4.670      7.373
REMARK  5 active torsions:
REMARK  status: ('A' for Active; 'I' for Inactive)
REMARK    1  A    between atoms: N_1  and  C_10 
REMARK    2  A    between atoms: C_4  and  C_5 
REMARK    3  A    between atoms: C_4  and  C_7 
REMARK    4  A    between atoms: N_6  and  C_11 
REMARK    5  A    between atoms: C_10  and  C_11 
ROOT
HETATM    1  N   UNL     1      58.542   6.017   1.772  1.00  0.00    -0.070 N 
HETATM    2  C   UNL     1      58.793   6.735   0.511  1.00  0.00     0.235 C 
HETATM    3  C   UNL     1      58.782   6.895   2.933  1.00  0.00     0.235 C 
HETATM    4  C   UNL     1      60.472   8.245   1.636  1.00  0.00    -0.007 C 
HETATM    5  C   UNL     1      60.212   7.309   0.452  1.00  0.00     0.032 C 
HETATM    6  C   UNL     1      60.197   7.474   2.935  1.00  0.00     0.032 C 
HETATM    7  H   UNL     1      59.189   5.229   1.799  1.00  0.00     0.279 HD
ENDROOT
BRANCH   1   8
HETATM    8  C   UNL     1      57.155   5.500   1.839  1.00  0.00     0.262 C 
BRANCH   8   9
HETATM    9  C   UNL     1      56.073   6.599   1.826  1.00  0.00     0.257 C 
BRANCH   9  10
HETATM   10  N   UNL     1      54.997   6.312   2.782  1.00  0.00    -0.078 N 
HETATM   11  H   UNL     1      54.381   5.596   2.396  1.00  0.00     0.274 HD
HETATM   12  H   UNL     1      54.462   7.163   2.957  1.00  0.00     0.274 HD
HETATM   13  H   UNL     1      55.401   5.978   3.657  1.00  0.00     0.274 HD
ENDBRANCH   9  10
ENDBRANCH   8   9
ENDBRANCH   1   8
BRANCH   4  14
HETATM   14  C   UNL     1      61.899   8.824   1.583  1.00  0.00     0.043 C 
BRANCH  14  15
HETATM   15  C   UNL     1      62.332   9.462   2.884  1.00  0.00    -0.058 A 
HETATM   16  C   UNL     1      63.188   8.778   3.756  1.00  0.00     0.007 A 
HETATM   17  C   UNL     1      63.550   9.342   4.982  1.00  0.00     0.001 A 
HETATM   18  C   UNL     1      63.062  10.597   5.343  1.00  0.00     0.000 A 
HETATM   19  C   UNL     1      62.225  11.296   4.475  1.00  0.00     0.001 A 
HETATM   20  C   UNL     1      61.870  10.736   3.248  1.00  0.00     0.007 A 
ENDBRANCH  14  15
ENDBRANCH   4  14
TORSDOF 5
ENDMDL
