MODEL 1
REMARK VINA RESULT:      -4.3      0.000      0.000
REMARK  2 active torsions:
REMARK  status: ('A' for Active; 'I' for Inactive)
REMARK    1  A    between atoms: N_2  and  C_9 
REMARK    2  A    between atoms: C_3  and  C_9 
ROOT
HETATM    1  C   UNL     1      62.077  10.711   3.089  1.00  0.00     0.034 A 
HETATM    2  C   UNL     1      62.845   8.668   4.850  1.00  0.00    -0.033 A 
HETATM    3 CL   UNL     1      61.611  11.965   2.008  1.00  0.00    -0.084 Cl
HETATM    4  C   UNL     1      62.149   9.395   2.636  1.00  0.00     0.024 A 
HETATM    5  C   UNL     1      62.385  11.019   4.412  1.00  0.00     0.024 A 
HETATM    6  C   UNL     1      62.530   8.376   3.515  1.00  0.00     0.010 A 
HETATM    7  C   UNL     1      62.774  10.002   5.285  1.00  0.00     0.010 A 
ENDROOT
BRANCH   2   8
HETATM    8  C   UNL     1      63.269   7.571   5.801  1.00  0.00     0.270 C 
BRANCH   8   9
HETATM    9  N   UNL     1      64.612   7.816   6.330  1.00  0.00    -0.075 N 
HETATM   10  C   UNL     1      65.139   6.637   6.996  1.00  0.00     0.267 C 
HETATM   11  H   UNL     1      64.572   8.586   6.999  1.00  0.00     0.277 HD
HETATM   12  H   UNL     1      65.229   8.049   5.552  1.00  0.00     0.277 HD
ENDBRANCH   8   9
ENDBRANCH   2   8
TORSDOF 2
ENDMDL
MODEL 2
REMARK VINA RESULT:      -4.3      0.045      1.529
REMARK  2 active torsions:
REMARK  status: ('A' for Active; 'I' for Inactive)
REMARK    1  A    between atoms: N_2  and  C_9 
REMARK    2  A    between atoms: C_3  and  C_9 
ROOT
HETATM    1  C   UNL     1      62.096  10.692   3.077  1.00  0.00     0.034 A 
HETATM    2  C   UNL     1      62.841   8.671   4.872  1.00  0.00    -0.033 A 
HETATM    3 CL   UNL     1      61.634  11.931   1.977  1.00  0.00    -0.084 Cl
HETATM    4  C   UNL     1      62.390  11.014   4.400  1.00  0.00     0.024 A 
HETATM    5  C   UNL     1      62.170   9.372   2.638  1.00  0.00     0.024 A 
HETATM    6  C   UNL     1      62.763  10.005   5.295  1.00  0.00     0.010 A 
HETATM    7  C   UNL     1      62.534   8.366   3.535  1.00  0.00     0.010 A 
ENDROOT
BRANCH   2   8
HETATM    8  C   UNL     1      63.233   7.576   5.839  1.00  0.00     0.270 C 
BRANCH   8   9
HETATM    9  N   UNL     1      64.586   7.785   6.358  1.00  0.00    -0.075 N 
HETATM   10  C   UNL     1      65.122   6.564   6.937  1.00  0.00     0.267 C 
HETATM   11  H   UNL     1      64.559   8.510   7.077  1.00  0.00     0.277 HD
HETATM   12  H   UNL     1      65.189   8.067   5.586  1.00  0.00     0.277 HD
ENDBRANCH   8   9
ENDBRANCH   2   8
TORSDOF 2
ENDMDL
MODEL 3
REMARK VINA RESULT:      -3.7      1.614      1.905
REMARK  2 active torsions:
REMARK  status: ('A' for Active; 'I' for Inactive)
REMARK    1  A    between atoms: N_2  and  C_9 
REMARK    2  A    between atoms: C_3  and  C_9 
ROOT
HETATM    1  C   UNL     1      62.352   8.549   2.515  1.00  0.00     0.034 A 
HETATM    2  C   UNL     1      64.211   8.167   4.580  1.00  0.00    -0.033 A 
HETATM    3 CL   UNL     1      61.215   8.785   1.246  1.00  0.00    -0.084 Cl
HETATM    4  C   UNL     1      63.172   7.422   2.511  1.00  0.00     0.024 A 
HETATM    5  C   UNL     1      62.450   9.488   3.539  1.00  0.00     0.024 A 
HETATM    6  C   UNL     1      64.098   7.230   3.542  1.00  0.00     0.010 A 
HETATM    7  C   UNL     1      63.381   9.300   4.562  1.00  0.00     0.010 A 
ENDROOT
BRANCH   2   8
HETATM    8  C   UNL     1      65.220   7.970   5.690  1.00  0.00     0.270 C 
BRANCH   8   9
HETATM    9  N   UNL     1      64.626   7.266   6.828  1.00  0.00    -0.075 N 
HETATM   10  C   UNL     1      65.528   6.250   7.347  1.00  0.00     0.267 C 
HETATM   11  H   UNL     1      63.759   6.819   6.528  1.00  0.00     0.277 HD
HETATM   12  H   UNL     1      64.444   7.943   7.568  1.00  0.00     0.277 HD
ENDBRANCH   8   9
ENDBRANCH   2   8
TORSDOF 2
ENDMDL
MODEL 4
REMARK VINA RESULT:      -3.6      1.852      2.606
REMARK  2 active torsions:
REMARK  status: ('A' for Active; 'I' for Inactive)
REMARK    1  A    between atoms: N_2  and  C_9 
REMARK    2  A    between atoms: C_3  and  C_9 
ROOT
HETATM    1  C   UNL     1      62.003  10.413   2.249  1.00  0.00     0.034 A 
HETATM    2  C   UNL     1      62.640   7.734   2.782  1.00  0.00    -0.033 A 
HETATM    3 CL   UNL     1      61.608  12.055   1.923  1.00  0.00    -0.084 Cl
HETATM    4  C   UNL     1      62.268  10.010   3.556  1.00  0.00     0.024 A 
HETATM    5  C   UNL     1      62.052   9.494   1.204  1.00  0.00     0.024 A 
HETATM    6  C   UNL     1      62.588   8.674   3.822  1.00  0.00     0.010 A 
HETATM    7  C   UNL     1      62.362   8.159   1.472  1.00  0.00     0.010 A 
ENDROOT
BRANCH   2   8
HETATM    8  C   UNL     1      62.973   6.287   3.066  1.00  0.00     0.270 C 
BRANCH   8   9
HETATM    9  N   UNL     1      64.255   6.163   3.763  1.00  0.00    -0.075 N 
HETATM   10  C   UNL     1      64.430   4.829   4.312  1.00  0.00     0.267 C 
HETATM   11  H   UNL     1      64.288   6.843   4.523  1.00  0.00     0.277 HD
HETATM   12  H   UNL     1      65.005   6.337   3.094  1.00  0.00     0.277 HD
ENDBRANCH   8   9
ENDBRANCH   2   8
TORSDOF 2
ENDMDL
MODEL 5
REMARK VINA RESULT:      -3.5      2.199      2.779
REMARK  2 active torsions:
REMARK  status: ('A' for Active; 'I' for Inactive)
REMARK    1  A    between atoms: N_2  and  C_9 
REMARK    2  A    between atoms: C_3  and  C_9 
ROOT
HETATM    1  C   UNL     1      63.104   8.277   3.606  1.00  0.00     0.034 A 
HETATM    2  C   UNL     1      65.541   7.641   4.840  1.00  0.00    -0.033 A 
HETATM    3 CL   UNL     1      61.612   8.670   2.846  1.00  0.00    -0.084 Cl
HETATM    4  C   UNL     1      63.822   7.157   3.189  1.00  0.00     0.024 A 
HETATM    5  C   UNL     1      63.590   9.084   4.632  1.00  0.00     0.024 A 
HETATM    6  C   UNL     1      65.036   6.839   3.806  1.00  0.00     0.010 A 
HETATM    7  C   UNL     1      64.807   8.769   5.241  1.00  0.00     0.010 A 
ENDROOT
BRANCH   2   8
HETATM    8  C   UNL     1      66.859   7.307   5.502  1.00  0.00     0.270 C 
BRANCH   8   9
HETATM    9  N   UNL     1      66.975   7.950   6.812  1.00  0.00    -0.075 N 
HETATM   10  C   UNL     1      66.738   7.001   7.887  1.00  0.00     0.267 C 
HETATM   11  H   UNL     1      66.288   8.703   6.875  1.00  0.00     0.277 HD
HETATM   12  H   UNL     1      67.921   8.318   6.909  1.00  0.00     0.277 HD
ENDBRANCH   8   9
ENDBRANCH   2   8
TORSDOF 2
ENDMDL
MODEL 6
REMARK VINA RESULT:      -3.4     12.225     13.663
REMARK  2 active torsions:
REMARK  status: ('A' for Active; 'I' for Inactive)
REMARK    1  A    between atoms: N_2  and  C_9 
REMARK    2  A    between atoms: C_3  and  C_9 
ROOT
HETATM    1  C   UNL     1      59.356   0.871  12.903  1.00  0.00     0.034 A 
HETATM    2  C   UNL     1      56.838   2.028  13.335  1.00  0.00    -0.033 A 
HETATM    3 CL   UNL     1      60.903   0.165  12.641  1.00  0.00    -0.084 Cl
HETATM    4  C   UNL     1      58.562   0.430  13.960  1.00  0.00     0.024 A 
HETATM    5  C   UNL     1      58.908   1.884  12.058  1.00  0.00     0.024 A 
HETATM    6  C   UNL     1      57.305   1.006  14.174  1.00  0.00     0.010 A 
HETATM    7  C   UNL     1      57.657   2.463  12.279  1.00  0.00     0.010 A 
ENDROOT
BRANCH   2   8
HETATM    8  C   UNL     1      55.485   2.662  13.570  1.00  0.00     0.270 C 
BRANCH   8   9
HETATM    9  N   UNL     1      54.954   2.306  14.887  1.00  0.00    -0.075 N 
HETATM   10  C   UNL     1      53.719   1.548  14.770  1.00  0.00     0.267 C 
HETATM   11  H   UNL     1      54.771   3.160  15.415  1.00  0.00     0.277 HD
HETATM   12  H   UNL     1      55.642   1.727  15.368  1.00  0.00     0.277 HD
ENDBRANCH   8   9
ENDBRANCH   2   8
TORSDOF 2
ENDMDL
MODEL 7
REMARK VINA RESULT:      -3.4      3.340      4.905
REMARK  2 active torsions:
REMARK  status: ('A' for Active; 'I' for Inactive)
REMARK    1  A    between atoms: N_2  and  C_9 
REMARK    2  A    between atoms: C_3  and  C_9 
ROOT
HETATM    1  C   UNL     1      64.008   6.734   5.670  1.00  0.00     0.034 A 
HETATM    2  C   UNL     1      62.912   9.158   4.784  1.00  0.00    -0.033 A 
HETATM    3 CL   UNL     1      64.682   5.245   6.208  1.00  0.00    -0.084 Cl
HETATM    4  C   UNL     1      64.815   7.866   5.572  1.00  0.00     0.024 A 
HETATM    5  C   UNL     1      62.659   6.798   5.330  1.00  0.00     0.024 A 
HETATM    6  C   UNL     1      64.268   9.076   5.132  1.00  0.00     0.010 A 
HETATM    7  C   UNL     1      62.116   8.005   4.883  1.00  0.00     0.010 A 
ENDROOT
BRANCH   2   8
HETATM    8  C   UNL     1      62.319  10.461   4.297  1.00  0.00     0.270 C 
BRANCH   8   9
HETATM    9  N   UNL     1      61.526  10.263   3.082  1.00  0.00    -0.075 N 
HETATM   10  C   UNL     1      61.806  11.293   2.096  1.00  0.00     0.267 C 
HETATM   11  H   UNL     1      60.535  10.294   3.322  1.00  0.00     0.277 HD
HETATM   12  H   UNL     1      61.770   9.358   2.680  1.00  0.00     0.277 HD
ENDBRANCH   8   9
ENDBRANCH   2   8
TORSDOF 2
ENDMDL
MODEL 8
REMARK VINA RESULT:      -3.4      3.947      5.979
REMARK  2 active torsions:
REMARK  status: ('A' for Active; 'I' for Inactive)
REMARK    1  A    between atoms: N_2  and  C_9 
REMARK    2  A    between atoms: C_3  and  C_9 
ROOT
HETATM    1  C   UNL     1      67.036   5.839   6.950  1.00  0.00     0.034 A 
HETATM    2  C   UNL     1      65.349   7.584   5.545  1.00  0.00    -0.033 A 
HETATM    3 CL   UNL     1      68.069   4.765   7.809  1.00  0.00    -0.084 Cl
HETATM    4  C   UNL     1      67.525   6.541   5.850  1.00  0.00     0.024 A 
HETATM    5  C   UNL     1      65.713   5.997   7.356  1.00  0.00     0.024 A 
HETATM    6  C   UNL     1      66.684   7.413   5.150  1.00  0.00     0.010 A 
HETATM    7  C   UNL     1      64.873   6.861   6.651  1.00  0.00     0.010 A 
ENDROOT
BRANCH   2   8
HETATM    8  C   UNL     1      64.433   8.516   4.783  1.00  0.00     0.270 C 
BRANCH   8   9
HETATM    9  N   UNL     1      63.955   9.606   5.636  1.00  0.00    -0.075 N 
HETATM   10  C   UNL     1      62.800  10.266   5.050  1.00  0.00     0.267 C 
HETATM   11  H   UNL     1      64.704  10.289   5.755  1.00  0.00     0.277 HD
HETATM   12  H   UNL     1      63.680   9.214   6.537  1.00  0.00     0.277 HD
ENDBRANCH   8   9
ENDBRANCH   2   8
TORSDOF 2
ENDMDL
MODEL 9
REMARK VINA RESULT:      -3.3      4.953      7.434
REMARK  2 active torsions:
REMARK  status: ('A' for Active; 'I' for Inactive)
REMARK    1  A    between atoms: N_2  and  C_9 
REMARK    2  A    between atoms: C_3  and  C_9 
ROOT
HETATM    1  C   UNL     1      67.572   4.496   8.297  1.00  0.00     0.034 A 
HETATM    2  C   UNL     1      66.980   6.932   7.042  1.00  0.00    -0.033 A 
HETATM    3 CL   UNL     1      67.940   3.003   9.068  1.00  0.00    -0.084 Cl
HETATM    4  C   UNL     1      66.890   5.489   8.997  1.00  0.00     0.024 A 
HETATM    5  C   UNL     1      67.963   4.705   6.977  1.00  0.00     0.024 A 
HETATM    6  C   UNL     1      66.593   6.704   8.370  1.00  0.00     0.010 A 
HETATM    7  C   UNL     1      67.674   5.922   6.356  1.00  0.00     0.010 A 
ENDROOT
BRANCH   2   8
HETATM    8  C   UNL     1      66.672   8.249   6.364  1.00  0.00     0.270 C 
BRANCH   8   9
HETATM    9  N   UNL     1      65.998   8.042   5.081  1.00  0.00    -0.075 N 
HETATM   10  C   UNL     1      64.556   7.966   5.250  1.00  0.00     0.267 C 
HETATM   11  H   UNL     1      66.330   7.170   4.667  1.00  0.00     0.277 HD
HETATM   12  H   UNL     1      66.211   8.832   4.473  1.00  0.00     0.277 HD
ENDBRANCH   8   9
ENDBRANCH   2   8
TORSDOF 2
ENDMDL
