MODEL 1
REMARK VINA RESULT:      -4.8      0.000      0.000
REMARK  2 active torsions:
REMARK  status: ('A' for Active; 'I' for Inactive)
REMARK       I    between atoms: C_1  and  N_2 
REMARK    1  A    between atoms: C_1  and  C_3 
REMARK    2  A    between atoms: N_2  and  C_7 
ROOT
HETATM    1  C   UNL     1      65.445   7.928   5.649  1.00  0.00     0.229 C 
HETATM    2  N   UNL     1      64.073   8.121   5.704  1.00  0.00    -0.326 N 
HETATM    3  O   UNL     1      66.189   8.642   4.974  1.00  0.00    -0.272 OA
HETATM    4  H   UNL     1      63.558   7.560   6.328  1.00  0.00     0.169 HD
ENDROOT
BRANCH   2   5
HETATM    5  C   UNL     1      63.355   9.076   4.924  1.00  0.00     0.037 A 
HETATM    6  C   UNL     1      63.077  10.369   5.367  1.00  0.00     0.046 A 
HETATM    7  C   UNL     1      62.309  11.206   4.571  1.00  0.00     0.090 A 
HETATM    8  N   UNL     1      61.829  10.846   3.364  1.00  0.00    -0.375 N 
HETATM    9  C   UNL     1      62.142   9.612   2.933  1.00  0.00     0.090 A 
ATOM     10  HN  UNL     1      61.257  11.479   2.805  1.00  0.00     0.164 HD
HETATM   11  C   UNL     1      62.908   8.706   3.658  1.00  0.00     0.046 A 
ENDBRANCH   2   5
BRANCH   1  12
HETATM   12  C   UNL     1      66.034   6.765   6.469  1.00  0.00     0.030 C 
HETATM   13  C   UNL     1      64.949   5.720   6.750  1.00  0.00     0.025 C 
HETATM   14  C   UNL     1      67.148   6.110   5.621  1.00  0.00     0.025 C 
HETATM   15  C   UNL     1      66.657   7.220   7.794  1.00  0.00     0.025 C 
ENDBRANCH   1  12
TORSDOF 2
ENDMDL
MODEL 2
REMARK VINA RESULT:      -4.6      1.215      2.149
REMARK  2 active torsions:
REMARK  status: ('A' for Active; 'I' for Inactive)
REMARK       I    between atoms: C_1  and  N_2 
REMARK    1  A    between atoms: C_1  and  C_3 
REMARK    2  A    between atoms: N_2  and  C_7 
ROOT
HETATM    1  C   UNL     1      65.000   7.352   6.155  1.00  0.00     0.229 C 
HETATM    2  N   UNL     1      64.899   8.017   4.943  1.00  0.00    -0.326 N 
HETATM    3  O   UNL     1      64.052   7.246   6.935  1.00  0.00    -0.272 OA
HETATM    4  H   UNL     1      65.677   7.990   4.340  1.00  0.00     0.169 HD
ENDROOT
BRANCH   2   5
HETATM    5  C   UNL     1      63.747   8.738   4.504  1.00  0.00     0.037 A 
HETATM    6  C   UNL     1      62.897   8.277   3.499  1.00  0.00     0.046 A 
HETATM    7  C   UNL     1      61.843   9.078   3.086  1.00  0.00     0.090 A 
HETATM    8  N   UNL     1      61.572  10.283   3.626  1.00  0.00    -0.375 N 
HETATM    9  C   UNL     1      62.375  10.693   4.623  1.00  0.00     0.090 A 
ATOM     10  HN  UNL     1      60.796  10.856   3.295  1.00  0.00     0.164 HD
HETATM   11  C   UNL     1      63.452   9.958   5.106  1.00  0.00     0.046 A 
ENDBRANCH   2   5
BRANCH   1  12
HETATM   12  C   UNL     1      66.364   6.735   6.518  1.00  0.00     0.030 C 
HETATM   13  C   UNL     1      67.484   7.463   5.765  1.00  0.00     0.025 C 
HETATM   14  C   UNL     1      66.577   6.929   8.036  1.00  0.00     0.025 C 
HETATM   15  C   UNL     1      66.442   5.234   6.218  1.00  0.00     0.025 C 
ENDBRANCH   1  12
TORSDOF 2
ENDMDL
MODEL 3
REMARK VINA RESULT:      -4.5      1.699      5.292
REMARK  2 active torsions:
REMARK  status: ('A' for Active; 'I' for Inactive)
REMARK       I    between atoms: C_1  and  N_2 
REMARK    1  A    between atoms: C_1  and  C_3 
REMARK    2  A    between atoms: N_2  and  C_7 
ROOT
HETATM    1  C   UNL     1      63.858   8.748   4.694  1.00  0.00     0.229 C 
HETATM    2  N   UNL     1      64.517   7.528   4.678  1.00  0.00    -0.326 N 
HETATM    3  O   UNL     1      64.272   9.719   5.329  1.00  0.00    -0.272 OA
HETATM    4  H   UNL     1      64.165   6.827   4.083  1.00  0.00     0.169 HD
ENDROOT
BRANCH   2   5
HETATM    5  C   UNL     1      65.669   7.217   5.461  1.00  0.00     0.037 A 
HETATM    6  C   UNL     1      65.603   6.868   6.810  1.00  0.00     0.046 A 
HETATM    7  C   UNL     1      66.779   6.653   7.511  1.00  0.00     0.090 A 
HETATM    8  N   UNL     1      68.002   6.738   6.950  1.00  0.00    -0.375 N 
HETATM    9  C   UNL     1      68.046   7.032   5.640  1.00  0.00     0.090 A 
ATOM     10  HN  UNL     1      68.852   6.585   7.493  1.00  0.00     0.164 HD
HETATM   11  C   UNL     1      66.921   7.260   4.855  1.00  0.00     0.046 A 
ENDBRANCH   2   5
BRANCH   1  12
HETATM   12  C   UNL     1      62.555   8.864   3.880  1.00  0.00     0.030 C 
HETATM   13  C   UNL     1      61.504   7.896   4.434  1.00  0.00     0.025 C 
HETATM   14  C   UNL     1      62.032  10.310   4.036  1.00  0.00     0.025 C 
HETATM   15  C   UNL     1      62.756   8.595   2.384  1.00  0.00     0.025 C 
ENDBRANCH   1  12
TORSDOF 2
ENDMDL
MODEL 4
REMARK VINA RESULT:      -4.3      1.996      5.736
REMARK  2 active torsions:
REMARK  status: ('A' for Active; 'I' for Inactive)
REMARK       I    between atoms: C_1  and  N_2 
REMARK    1  A    between atoms: C_1  and  C_3 
REMARK    2  A    between atoms: N_2  and  C_7 
ROOT
HETATM    1  C   UNL     1      64.749   7.926   5.500  1.00  0.00     0.229 C 
HETATM    2  N   UNL     1      64.882   6.673   6.079  1.00  0.00    -0.326 N 
HETATM    3  O   UNL     1      65.639   8.777   5.547  1.00  0.00    -0.272 OA
HETATM    4  H   UNL     1      64.159   6.022   5.929  1.00  0.00     0.169 HD
ENDROOT
BRANCH   2   5
HETATM    5  C   UNL     1      65.992   6.259   6.874  1.00  0.00     0.037 A 
HETATM    6  C   UNL     1      67.070   5.536   6.361  1.00  0.00     0.046 A 
HETATM    7  C   UNL     1      68.070   5.112   7.223  1.00  0.00     0.090 A 
HETATM    8  N   UNL     1      68.075   5.384   8.543  1.00  0.00    -0.375 N 
HETATM    9  C   UNL     1      67.052   6.117   9.013  1.00  0.00     0.090 A 
ATOM     10  HN  UNL     1      68.819   5.049   9.156  1.00  0.00     0.164 HD
HETATM   11  C   UNL     1      66.007   6.589   8.226  1.00  0.00     0.046 A 
ENDBRANCH   2   5
BRANCH   1  12
HETATM   12  C   UNL     1      63.424   8.242   4.781  1.00  0.00     0.030 C 
HETATM   13  C   UNL     1      63.476   7.728   3.338  1.00  0.00     0.025 C 
HETATM   14  C   UNL     1      62.295   7.502   5.533  1.00  0.00     0.025 C 
HETATM   15  C   UNL     1      63.086   9.737   4.776  1.00  0.00     0.025 C 
ENDBRANCH   1  12
TORSDOF 2
ENDMDL
MODEL 5
REMARK VINA RESULT:      -4.0      3.629      5.434
REMARK  2 active torsions:
REMARK  status: ('A' for Active; 'I' for Inactive)
REMARK       I    between atoms: C_1  and  N_2 
REMARK    1  A    between atoms: C_1  and  C_3 
REMARK    2  A    between atoms: N_2  and  C_7 
ROOT
HETATM    1  C   UNL     1      62.709   7.569   5.890  1.00  0.00     0.229 C 
HETATM    2  N   UNL     1      61.987   6.462   5.472  1.00  0.00    -0.326 N 
HETATM    3  O   UNL     1      62.875   7.844   7.080  1.00  0.00    -0.272 OA
HETATM    4  H   UNL     1      61.967   6.267   4.508  1.00  0.00     0.169 HD
ENDROOT
BRANCH   2   5
HETATM    5  C   UNL     1      61.272   5.583   6.340  1.00  0.00     0.037 A 
HETATM    6  C   UNL     1      60.097   5.948   6.997  1.00  0.00     0.046 A 
HETATM    7  C   UNL     1      59.509   5.054   7.879  1.00  0.00     0.090 A 
HETATM    8  N   UNL     1      60.001   3.823   8.124  1.00  0.00    -0.375 N 
HETATM    9  C   UNL     1      61.110   3.471   7.451  1.00  0.00     0.090 A 
ATOM     10  HN  UNL     1      59.554   3.191   8.788  1.00  0.00     0.164 HD
HETATM   11  C   UNL     1      61.765   4.297   6.545  1.00  0.00     0.046 A 
ENDBRANCH   2   5
BRANCH   1  12
HETATM   12  C   UNL     1      63.311   8.479   4.802  1.00  0.00     0.030 C 
HETATM   13  C   UNL     1      62.862   9.927   5.024  1.00  0.00     0.025 C 
HETATM   14  C   UNL     1      64.849   8.409   4.932  1.00  0.00     0.025 C 
HETATM   15  C   UNL     1      62.938   8.042   3.381  1.00  0.00     0.025 C 
ENDBRANCH   1  12
TORSDOF 2
ENDMDL
MODEL 6
REMARK VINA RESULT:      -3.9      3.648      5.464
REMARK  2 active torsions:
REMARK  status: ('A' for Active; 'I' for Inactive)
REMARK       I    between atoms: C_1  and  N_2 
REMARK    1  A    between atoms: C_1  and  C_3 
REMARK    2  A    between atoms: N_2  and  C_7 
ROOT
HETATM    1  C   UNL     1      62.903   7.381   5.916  1.00  0.00     0.229 C 
HETATM    2  N   UNL     1      62.091   6.317   5.555  1.00  0.00    -0.326 N 
HETATM    3  O   UNL     1      63.152   7.658   7.090  1.00  0.00    -0.272 OA
HETATM    4  H   UNL     1      62.005   6.112   4.596  1.00  0.00     0.169 HD
ENDROOT
BRANCH   2   5
HETATM    5  C   UNL     1      61.372   5.495   6.474  1.00  0.00     0.037 A 
HETATM    6  C   UNL     1      61.705   4.164   6.730  1.00  0.00     0.046 A 
HETATM    7  C   UNL     1      60.906   3.420   7.584  1.00  0.00     0.090 A 
HETATM    8  N   UNL     1      59.824   3.921   8.211  1.00  0.00    -0.375 N 
HETATM    9  C   UNL     1      59.542   5.216   7.988  1.00  0.00     0.090 A 
ATOM     10  HN  UNL     1      59.247   3.346   8.826  1.00  0.00     0.164 HD
HETATM   11  C   UNL     1      60.286   6.041   7.152  1.00  0.00     0.046 A 
ENDBRANCH   2   5
BRANCH   1  12
HETATM   12  C   UNL     1      63.501   8.237   4.783  1.00  0.00     0.030 C 
HETATM   13  C   UNL     1      63.257   7.559   3.430  1.00  0.00     0.025 C 
HETATM   14  C   UNL     1      62.774   9.601   4.794  1.00  0.00     0.025 C 
HETATM   15  C   UNL     1      65.000   8.501   4.957  1.00  0.00     0.025 C 
ENDBRANCH   1  12
TORSDOF 2
ENDMDL
MODEL 7
REMARK VINA RESULT:      -3.9      1.531      2.293
REMARK  2 active torsions:
REMARK  status: ('A' for Active; 'I' for Inactive)
REMARK       I    between atoms: C_1  and  N_2 
REMARK    1  A    between atoms: C_1  and  C_3 
REMARK    2  A    between atoms: N_2  and  C_7 
ROOT
HETATM    1  C   UNL     1      65.392   7.764   4.992  1.00  0.00     0.229 C 
HETATM    2  N   UNL     1      64.380   7.178   4.248  1.00  0.00    -0.326 N 
HETATM    3  O   UNL     1      65.257   8.851   5.557  1.00  0.00    -0.272 OA
HETATM    4  H   UNL     1      64.538   6.273   3.895  1.00  0.00     0.169 HD
ENDROOT
BRANCH   2   5
HETATM    5  C   UNL     1      63.123   7.791   3.960  1.00  0.00     0.037 A 
HETATM    6  C   UNL     1      62.998   9.122   3.562  1.00  0.00     0.046 A 
HETATM    7  C   UNL     1      61.732   9.655   3.374  1.00  0.00     0.090 A 
HETATM    8  N   UNL     1      60.598   8.943   3.530  1.00  0.00    -0.375 N 
HETATM    9  C   UNL     1      60.738   7.651   3.871  1.00  0.00     0.090 A 
ATOM     10  HN  UNL     1      59.679   9.364   3.396  1.00  0.00     0.164 HD
HETATM   11  C   UNL     1      61.964   7.029   4.077  1.00  0.00     0.046 A 
ENDBRANCH   2   5
BRANCH   1  12
HETATM   12  C   UNL     1      66.730   7.008   5.095  1.00  0.00     0.030 C 
HETATM   13  C   UNL     1      67.896   8.003   5.080  1.00  0.00     0.025 C 
HETATM   14  C   UNL     1      66.739   6.251   6.442  1.00  0.00     0.025 C 
HETATM   15  C   UNL     1      66.926   5.980   3.975  1.00  0.00     0.025 C 
ENDBRANCH   1  12
TORSDOF 2
ENDMDL
MODEL 8
REMARK VINA RESULT:      -3.7      9.137     10.945
REMARK  2 active torsions:
REMARK  status: ('A' for Active; 'I' for Inactive)
REMARK       I    between atoms: C_1  and  N_2 
REMARK    1  A    between atoms: C_1  and  C_3 
REMARK    2  A    between atoms: N_2  and  C_7 
ROOT
HETATM    1  C   UNL     1      58.652   3.503   9.656  1.00  0.00     0.229 C 
HETATM    2  N   UNL     1      58.492   2.297  10.322  1.00  0.00    -0.326 N 
HETATM    3  O   UNL     1      58.634   4.590  10.237  1.00  0.00    -0.272 OA
HETATM    4  H   UNL     1      58.598   1.470   9.800  1.00  0.00     0.169 HD
ENDROOT
BRANCH   2   5
HETATM    5  C   UNL     1      58.185   2.170  11.710  1.00  0.00     0.037 A 
HETATM    6  C   UNL     1      59.148   1.895  12.682  1.00  0.00     0.046 A 
HETATM    7  C   UNL     1      58.749   1.716  13.997  1.00  0.00     0.090 A 
HETATM    8  N   UNL     1      57.468   1.819  14.403  1.00  0.00    -0.375 N 
HETATM    9  C   UNL     1      56.559   2.126  13.463  1.00  0.00     0.090 A 
ATOM     10  HN  UNL     1      57.201   1.670  15.377  1.00  0.00     0.164 HD
HETATM   11  C   UNL     1      56.865   2.328  12.122  1.00  0.00     0.046 A 
ENDBRANCH   2   5
BRANCH   1  12
HETATM   12  C   UNL     1      58.854   3.452   8.130  1.00  0.00     0.030 C 
HETATM   13  C   UNL     1      58.766   2.003   7.638  1.00  0.00     0.025 C 
HETATM   14  C   UNL     1      57.714   4.269   7.479  1.00  0.00     0.025 C 
HETATM   15  C   UNL     1      60.186   4.062   7.680  1.00  0.00     0.025 C 
ENDBRANCH   1  12
TORSDOF 2
ENDMDL
MODEL 9
REMARK VINA RESULT:      -3.6      4.680      6.397
REMARK  2 active torsions:
REMARK  status: ('A' for Active; 'I' for Inactive)
REMARK       I    between atoms: C_1  and  N_2 
REMARK    1  A    between atoms: C_1  and  C_3 
REMARK    2  A    between atoms: N_2  and  C_7 
ROOT
HETATM    1  C   UNL     1      60.639   7.743   3.075  1.00  0.00     0.229 C 
HETATM    2  N   UNL     1      59.401   8.145   2.598  1.00  0.00    -0.326 N 
HETATM    3  O   UNL     1      60.787   6.740   3.775  1.00  0.00    -0.272 OA
HETATM    4  H   UNL     1      59.376   8.911   1.980  1.00  0.00     0.169 HD
ENDROOT
BRANCH   2   5
HETATM    5  C   UNL     1      58.160   7.528   2.938  1.00  0.00     0.037 A 
HETATM    6  C   UNL     1      57.694   7.422   4.249  1.00  0.00     0.046 A 
HETATM    7  C   UNL     1      56.511   6.740   4.493  1.00  0.00     0.090 A 
HETATM    8  N   UNL     1      55.760   6.188   3.519  1.00  0.00    -0.375 N 
HETATM    9  C   UNL     1      56.201   6.336   2.259  1.00  0.00     0.090 A 
ATOM     10  HN  UNL     1      54.900   5.682   3.729  1.00  0.00     0.164 HD
HETATM   11  C   UNL     1      57.371   7.005   1.917  1.00  0.00     0.046 A 
ENDBRANCH   2   5
BRANCH   1  12
HETATM   12  C   UNL     1      61.860   8.606   2.704  1.00  0.00     0.030 C 
HETATM   13  C   UNL     1      61.753   9.064   1.245  1.00  0.00     0.025 C 
HETATM   14  C   UNL     1      61.850   9.851   3.619  1.00  0.00     0.025 C 
HETATM   15  C   UNL     1      63.194   7.879   2.912  1.00  0.00     0.025 C 
ENDBRANCH   1  12
TORSDOF 2
ENDMDL
