MODEL 1
REMARK VINA RESULT:      -4.5      0.000      0.000
REMARK  2 active torsions:
REMARK  status: ('A' for Active; 'I' for Inactive)
REMARK    1  A    between atoms: C_1  and  C_5 
REMARK    2  A    between atoms: N_4  and  C_5 
ROOT
HETATM    1  C   UNL     1      62.575   9.326   3.976  1.00  0.00    -0.011 A 
HETATM    2  C   UNL     1      62.532   8.868   2.648  1.00  0.00     0.042 A 
HETATM    3 CL   UNL     1      62.963   7.253   2.204  1.00  0.00    -0.084 Cl
HETATM    4  C   UNL     1      62.244  10.676   4.218  1.00  0.00     0.010 A 
HETATM    5  C   UNL     1      62.144   9.725   1.610  1.00  0.00     0.024 A 
HETATM    6  C   UNL     1      61.851  11.524   3.182  1.00  0.00     0.001 A 
HETATM    7  C   UNL     1      61.798  11.049   1.877  1.00  0.00     0.002 A 
ENDROOT
BRANCH   1   8
HETATM    8  C   UNL     1      62.988   8.454   5.143  1.00  0.00     0.272 C 
BRANCH   8   9
HETATM    9  N   UNL     1      64.277   8.875   5.706  1.00  0.00    -0.075 N 
HETATM   10  C   UNL     1      65.380   8.164   5.076  1.00  0.00     0.267 C 
HETATM   11  H   UNL     1      64.282   8.680   6.707  1.00  0.00     0.277 HD
HETATM   12  H   UNL     1      64.395   9.873   5.535  1.00  0.00     0.277 HD
ENDBRANCH   8   9
ENDBRANCH   1   8
TORSDOF 2
ENDMDL
MODEL 2
REMARK VINA RESULT:      -4.3      1.722      2.381
REMARK  2 active torsions:
REMARK  status: ('A' for Active; 'I' for Inactive)
REMARK    1  A    between atoms: C_1  and  C_5 
REMARK    2  A    between atoms: N_4  and  C_5 
ROOT
HETATM    1  C   UNL     1      62.660   8.901   3.724  1.00  0.00    -0.011 A 
HETATM    2  C   UNL     1      62.224  10.143   3.232  1.00  0.00     0.042 A 
HETATM    3 CL   UNL     1      62.049  11.537   4.241  1.00  0.00    -0.084 Cl
HETATM    4  C   UNL     1      62.724   7.820   2.820  1.00  0.00     0.010 A 
HETATM    5  C   UNL     1      61.892  10.298   1.880  1.00  0.00     0.024 A 
HETATM    6  C   UNL     1      62.400   7.981   1.472  1.00  0.00     0.001 A 
HETATM    7  C   UNL     1      61.986   9.221   1.000  1.00  0.00     0.002 A 
ENDROOT
BRANCH   1   8
HETATM    8  C   UNL     1      63.030   8.665   5.173  1.00  0.00     0.272 C 
BRANCH   8   9
HETATM    9  N   UNL     1      64.349   9.224   5.494  1.00  0.00    -0.075 N 
HETATM   10  C   UNL     1      65.387   8.207   5.399  1.00  0.00     0.267 C 
HETATM   11  H   UNL     1      64.331   9.594   6.445  1.00  0.00     0.277 HD
HETATM   12  H   UNL     1      64.559   9.965   4.826  1.00  0.00     0.277 HD
ENDBRANCH   8   9
ENDBRANCH   1   8
TORSDOF 2
ENDMDL
MODEL 3
REMARK VINA RESULT:      -4.1      2.261      3.661
REMARK  2 active torsions:
REMARK  status: ('A' for Active; 'I' for Inactive)
REMARK    1  A    between atoms: C_1  and  C_5 
REMARK    2  A    between atoms: N_4  and  C_5 
ROOT
HETATM    1  C   UNL     1      62.214   9.580   2.659  1.00  0.00    -0.011 A 
HETATM    2  C   UNL     1      62.979   8.673   3.413  1.00  0.00     0.042 A 
HETATM    3 CL   UNL     1      63.416   7.106   2.823  1.00  0.00    -0.084 Cl
HETATM    4  C   UNL     1      61.879  10.813   3.255  1.00  0.00     0.010 A 
HETATM    5  C   UNL     1      63.412   9.005   4.703  1.00  0.00     0.024 A 
HETATM    6  C   UNL     1      62.318  11.143   4.539  1.00  0.00     0.001 A 
HETATM    7  C   UNL     1      63.088  10.240   5.263  1.00  0.00     0.002 A 
ENDROOT
BRANCH   1   8
HETATM    8  C   UNL     1      61.712   9.283   1.262  1.00  0.00     0.272 C 
BRANCH   8   9
HETATM    9  N   UNL     1      60.315   8.834   1.270  1.00  0.00    -0.075 N 
HETATM   10  C   UNL     1      60.142   7.645   0.449  1.00  0.00     0.267 C 
HETATM   11  H   UNL     1      59.724   9.581   0.905  1.00  0.00     0.277 HD
HETATM   12  H   UNL     1      60.053   8.607   2.229  1.00  0.00     0.277 HD
ENDBRANCH   8   9
ENDBRANCH   1   8
TORSDOF 2
ENDMDL
MODEL 4
REMARK VINA RESULT:      -3.5      2.303      2.983
REMARK  2 active torsions:
REMARK  status: ('A' for Active; 'I' for Inactive)
REMARK    1  A    between atoms: C_1  and  C_5 
REMARK    2  A    between atoms: N_4  and  C_5 
ROOT
HETATM    1  C   UNL     1      62.870   8.668   3.302  1.00  0.00    -0.011 A 
HETATM    2  C   UNL     1      63.270   8.944   4.620  1.00  0.00     0.042 A 
HETATM    3 CL   UNL     1      64.105   7.791   5.603  1.00  0.00    -0.084 Cl
HETATM    4  C   UNL     1      62.157   9.667   2.607  1.00  0.00     0.010 A 
HETATM    5  C   UNL     1      62.988  10.185   5.206  1.00  0.00     0.024 A 
HETATM    6  C   UNL     1      61.884  10.905   3.192  1.00  0.00     0.001 A 
HETATM    7  C   UNL     1      62.302  11.166   4.492  1.00  0.00     0.002 A 
ENDROOT
BRANCH   1   8
HETATM    8  C   UNL     1      63.140   7.348   2.610  1.00  0.00     0.272 C 
BRANCH   8   9
HETATM    9  N   UNL     1      62.110   6.350   2.924  1.00  0.00    -0.075 N 
HETATM   10  C   UNL     1      62.706   5.132   3.454  1.00  0.00     0.267 C 
HETATM   11  H   UNL     1      61.594   6.126   2.073  1.00  0.00     0.277 HD
HETATM   12  H   UNL     1      61.485   6.740   3.629  1.00  0.00     0.277 HD
ENDBRANCH   8   9
ENDBRANCH   1   8
TORSDOF 2
ENDMDL
MODEL 5
REMARK VINA RESULT:      -3.5     12.367     13.749
REMARK  2 active torsions:
REMARK  status: ('A' for Active; 'I' for Inactive)
REMARK    1  A    between atoms: C_1  and  C_5 
REMARK    2  A    between atoms: N_4  and  C_5 
ROOT
HETATM    1  C   UNL     1      56.656   1.930  13.417  1.00  0.00    -0.011 A 
HETATM    2  C   UNL     1      57.007   2.195  12.083  1.00  0.00     0.042 A 
HETATM    3 CL   UNL     1      55.832   2.544  10.862  1.00  0.00    -0.084 Cl
HETATM    4  C   UNL     1      57.693   1.615  14.321  1.00  0.00     0.010 A 
HETATM    5  C   UNL     1      58.348   2.172  11.679  1.00  0.00     0.024 A 
HETATM    6  C   UNL     1      59.029   1.599  13.916  1.00  0.00     0.001 A 
HETATM    7  C   UNL     1      59.358   1.880  12.595  1.00  0.00     0.002 A 
ENDROOT
BRANCH   1   8
HETATM    8  C   UNL     1      55.228   1.936  13.919  1.00  0.00     0.272 C 
BRANCH   8   9
HETATM    9  N   UNL     1      54.944   3.123  14.735  1.00  0.00    -0.075 N 
HETATM   10  C   UNL     1      54.428   4.211  13.916  1.00  0.00     0.267 C 
HETATM   11  H   UNL     1      55.804   3.427  15.190  1.00  0.00     0.277 HD
HETATM   12  H   UNL     1      54.238   2.878  15.429  1.00  0.00     0.277 HD
ENDBRANCH   8   9
ENDBRANCH   1   8
TORSDOF 2
ENDMDL
MODEL 6
REMARK VINA RESULT:      -3.4      2.647      4.314
REMARK  2 active torsions:
REMARK  status: ('A' for Active; 'I' for Inactive)
REMARK    1  A    between atoms: C_1  and  C_5 
REMARK    2  A    between atoms: N_4  and  C_5 
ROOT
HETATM    1  C   UNL     1      62.713   8.724   3.760  1.00  0.00    -0.011 A 
HETATM    2  C   UNL     1      63.495   9.303   4.773  1.00  0.00     0.042 A 
HETATM    3 CL   UNL     1      63.049  10.771   5.571  1.00  0.00    -0.084 Cl
HETATM    4  C   UNL     1      63.194   7.548   3.147  1.00  0.00     0.010 A 
HETATM    5  C   UNL     1      64.699   8.709   5.172  1.00  0.00     0.024 A 
HETATM    6  C   UNL     1      64.391   6.955   3.552  1.00  0.00     0.001 A 
HETATM    7  C   UNL     1      65.143   7.533   4.568  1.00  0.00     0.002 A 
ENDROOT
BRANCH   1   8
HETATM    8  C   UNL     1      61.405   9.315   3.279  1.00  0.00     0.272 C 
BRANCH   8   9
HETATM    9  N   UNL     1      60.559   8.306   2.628  1.00  0.00    -0.075 N 
HETATM   10  C   UNL     1      59.624   7.717   3.575  1.00  0.00     0.267 C 
HETATM   11  H   UNL     1      61.154   7.572   2.244  1.00  0.00     0.277 HD
HETATM   12  H   UNL     1      60.027   8.760   1.886  1.00  0.00     0.277 HD
ENDBRANCH   8   9
ENDBRANCH   1   8
TORSDOF 2
ENDMDL
MODEL 7
REMARK VINA RESULT:      -3.4      2.226      3.214
REMARK  2 active torsions:
REMARK  status: ('A' for Active; 'I' for Inactive)
REMARK    1  A    between atoms: C_1  and  C_5 
REMARK    2  A    between atoms: N_4  and  C_5 
ROOT
HETATM    1  C   UNL     1      64.295   8.229   4.559  1.00  0.00    -0.011 A 
HETATM    2  C   UNL     1      63.276   9.174   4.356  1.00  0.00     0.042 A 
HETATM    3 CL   UNL     1      63.068  10.556   5.377  1.00  0.00    -0.084 Cl
HETATM    4  C   UNL     1      64.345   7.118   3.692  1.00  0.00     0.010 A 
HETATM    5  C   UNL     1      62.360   9.022   3.307  1.00  0.00     0.024 A 
HETATM    6  C   UNL     1      63.435   6.973   2.643  1.00  0.00     0.001 A 
HETATM    7  C   UNL     1      62.443   7.927   2.448  1.00  0.00     0.002 A 
ENDROOT
BRANCH   1   8
HETATM    8  C   UNL     1      65.315   8.332   5.674  1.00  0.00     0.272 C 
BRANCH   8   9
HETATM    9  N   UNL     1      65.890   7.023   6.006  1.00  0.00    -0.075 N 
HETATM   10  C   UNL     1      66.325   6.980   7.395  1.00  0.00     0.267 C 
HETATM   11  H   UNL     1      66.691   6.848   5.400  1.00  0.00     0.277 HD
HETATM   12  H   UNL     1      65.174   6.310   5.868  1.00  0.00     0.277 HD
ENDBRANCH   8   9
ENDBRANCH   1   8
TORSDOF 2
ENDMDL
MODEL 8
REMARK VINA RESULT:      -3.3      5.990      7.372
REMARK  2 active torsions:
REMARK  status: ('A' for Active; 'I' for Inactive)
REMARK    1  A    between atoms: C_1  and  C_5 
REMARK    2  A    between atoms: N_4  and  C_5 
ROOT
HETATM    1  C   UNL     1      67.534   5.367   7.264  1.00  0.00    -0.011 A 
HETATM    2  C   UNL     1      67.019   6.542   7.838  1.00  0.00     0.042 A 
HETATM    3 CL   UNL     1      66.756   6.710   9.540  1.00  0.00    -0.084 Cl
HETATM    4  C   UNL     1      67.667   5.325   5.860  1.00  0.00     0.010 A 
HETATM    5  C   UNL     1      66.678   7.638   7.036  1.00  0.00     0.024 A 
HETATM    6  C   UNL     1      67.333   6.422   5.065  1.00  0.00     0.001 A 
HETATM    7  C   UNL     1      66.841   7.581   5.653  1.00  0.00     0.002 A 
ENDROOT
BRANCH   1   8
HETATM    8  C   UNL     1      67.919   4.146   8.071  1.00  0.00     0.272 C 
BRANCH   8   9
HETATM    9  N   UNL     1      66.757   3.297   8.360  1.00  0.00    -0.075 N 
HETATM   10  C   UNL     1      66.972   1.937   7.886  1.00  0.00     0.267 C 
HETATM   11  H   UNL     1      65.937   3.686   7.895  1.00  0.00     0.277 HD
HETATM   12  H   UNL     1      66.618   3.270   9.369  1.00  0.00     0.277 HD
ENDBRANCH   8   9
ENDBRANCH   1   8
TORSDOF 2
ENDMDL
MODEL 9
REMARK VINA RESULT:      -3.2      3.558      4.240
REMARK  2 active torsions:
REMARK  status: ('A' for Active; 'I' for Inactive)
REMARK    1  A    between atoms: C_1  and  C_5 
REMARK    2  A    between atoms: N_4  and  C_5 
ROOT
HETATM    1  C   UNL     1      60.290   7.859   2.811  1.00  0.00    -0.011 A 
HETATM    2  C   UNL     1      60.320   8.035   1.417  1.00  0.00     0.042 A 
HETATM    3 CL   UNL     1      59.130   7.348   0.365  1.00  0.00    -0.084 Cl
HETATM    4  C   UNL     1      61.335   8.427   3.569  1.00  0.00     0.010 A 
HETATM    5  C   UNL     1      61.344   8.775   0.813  1.00  0.00     0.024 A 
HETATM    6  C   UNL     1      62.350   9.170   2.964  1.00  0.00     0.001 A 
HETATM    7  C   UNL     1      62.354   9.347   1.585  1.00  0.00     0.002 A 
ENDROOT
BRANCH   1   8
HETATM    8  C   UNL     1      59.214   7.069   3.527  1.00  0.00     0.272 C 
BRANCH   8   9
HETATM    9  N   UNL     1      58.039   7.897   3.824  1.00  0.00    -0.075 N 
HETATM   10  C   UNL     1      57.294   7.362   4.955  1.00  0.00     0.267 C 
HETATM   11  H   UNL     1      57.432   7.920   3.005  1.00  0.00     0.277 HD
HETATM   12  H   UNL     1      58.357   8.837   4.061  1.00  0.00     0.277 HD
ENDBRANCH   8   9
ENDBRANCH   1   8
TORSDOF 2
ENDMDL
