MODEL 1
REMARK VINA RESULT:      -5.8      0.000      0.000
REMARK  4 active torsions:
REMARK  status: ('A' for Active; 'I' for Inactive)
REMARK    1  A    between atoms: C_3  and  C_8 
REMARK    2  A    between atoms: C_5  and  C_17 
REMARK    3  A    between atoms: C_7  and  C_9 
REMARK    4  A    between atoms: C_17  and  O_19 
ROOT
HETATM    1  N   UNL     1      65.375   7.196   7.072  1.00  0.00    -0.353 N 
ATOM      2  HN  UNL     1      65.003   8.063   7.459  1.00  0.00     0.166 HD
HETATM    3  C   UNL     1      65.159   6.773   5.843  1.00  0.00     0.085 A 
HETATM    4  S   UNL     1      65.889   5.258   5.472  1.00  0.00    -0.072 SA
HETATM    5  C   UNL     1      66.549   5.178   7.053  1.00  0.00     0.030 A 
HETATM    6  C   UNL     1      66.175   6.303   7.768  1.00  0.00     0.021 A 
HETATM    7  C   UNL     1      66.533   6.646   9.171  1.00  0.00     0.069 C 
ENDROOT
BRANCH   3   8
HETATM    8  C   UNL     1      64.316   7.475   4.860  1.00  0.00    -0.002 A 
HETATM    9  C   UNL     1      63.748   8.734   5.108  1.00  0.00     0.015 A 
HETATM   10  C   UNL     1      62.968   9.374   4.138  1.00  0.00     0.017 A 
HETATM   11  C   UNL     1      62.730   8.767   2.895  1.00  0.00     0.048 A 
HETATM   12  C   UNL     1      63.279   7.502   2.651  1.00  0.00     0.017 A 
HETATM   13  C   UNL     1      64.055   6.863   3.623  1.00  0.00     0.015 A 
BRANCH  11  14
HETATM   14  C   UNL     1      61.899   9.477   1.857  1.00  0.00     0.417 C 
HETATM   15  F   UNL     1      60.679   8.909   1.651  1.00  0.00    -0.166 F 
HETATM   16  F   UNL     1      61.655  10.776   2.186  1.00  0.00    -0.166 F 
HETATM   17  F   UNL     1      62.507   9.508   0.638  1.00  0.00    -0.166 F 
ENDBRANCH  11  14
ENDBRANCH   3   8
BRANCH   5  18
HETATM   18  C   UNL     1      67.371   4.009   7.465  1.00  0.00     0.212 C 
BRANCH  18  19
HETATM   19  O   UNL     1      66.585   3.219   8.348  1.00  0.00    -0.396 OA
HETATM   20  H   UNL     1      67.167   2.650   8.876  1.00  0.00     0.209 HD
ENDBRANCH  18  19
ENDBRANCH   5  18
TORSDOF 4
ENDMDL
MODEL 2
REMARK VINA RESULT:      -5.5      5.145      7.185
REMARK  4 active torsions:
REMARK  status: ('A' for Active; 'I' for Inactive)
REMARK    1  A    between atoms: C_3  and  C_8 
REMARK    2  A    between atoms: C_5  and  C_17 
REMARK    3  A    between atoms: C_7  and  C_9 
REMARK    4  A    between atoms: C_17  and  O_19 
ROOT
HETATM    1  N   UNL     1      63.056   9.723   4.069  1.00  0.00    -0.353 N 
ATOM      2  HN  UNL     1      63.301  10.437   4.755  1.00  0.00     0.166 HD
HETATM    3  C   UNL     1      63.456   8.468   4.120  1.00  0.00     0.085 A 
HETATM    4  S   UNL     1      62.911   7.493   2.810  1.00  0.00    -0.072 SA
HETATM    5  C   UNL     1      62.073   8.834   2.147  1.00  0.00     0.030 A 
HETATM    6  C   UNL     1      62.257   9.942   2.957  1.00  0.00     0.021 A 
HETATM    7  C   UNL     1      61.703  11.309   2.763  1.00  0.00     0.069 C 
ENDROOT
BRANCH   3   8
HETATM    8  C   UNL     1      64.347   7.924   5.159  1.00  0.00    -0.002 A 
HETATM    9  C   UNL     1      65.612   8.465   5.433  1.00  0.00     0.015 A 
HETATM   10  C   UNL     1      66.420   7.927   6.443  1.00  0.00     0.017 A 
HETATM   11  C   UNL     1      65.984   6.829   7.199  1.00  0.00     0.048 A 
HETATM   12  C   UNL     1      64.730   6.274   6.916  1.00  0.00     0.017 A 
HETATM   13  C   UNL     1      63.927   6.811   5.905  1.00  0.00     0.015 A 
BRANCH  11  14
HETATM   14  C   UNL     1      66.861   6.271   8.292  1.00  0.00     0.417 C 
HETATM   15  F   UNL     1      66.250   5.322   9.054  1.00  0.00    -0.166 F 
HETATM   16  F   UNL     1      67.991   5.687   7.805  1.00  0.00    -0.166 F 
HETATM   17  F   UNL     1      67.283   7.232   9.161  1.00  0.00    -0.166 F 
ENDBRANCH  11  14
ENDBRANCH   3   8
BRANCH   5  18
HETATM   18  C   UNL     1      61.313   8.690   0.877  1.00  0.00     0.212 C 
BRANCH  18  19
HETATM   19  O   UNL     1      59.929   8.654   1.204  1.00  0.00    -0.396 OA
HETATM   20  H   UNL     1      59.418   9.069   0.493  1.00  0.00     0.209 HD
ENDBRANCH  18  19
ENDBRANCH   5  18
TORSDOF 4
ENDMDL
MODEL 3
REMARK VINA RESULT:      -5.3      1.493      2.047
REMARK  4 active torsions:
REMARK  status: ('A' for Active; 'I' for Inactive)
REMARK    1  A    between atoms: C_3  and  C_8 
REMARK    2  A    between atoms: C_5  and  C_17 
REMARK    3  A    between atoms: C_7  and  C_9 
REMARK    4  A    between atoms: C_17  and  O_19 
ROOT
HETATM    1  N   UNL     1      66.125   5.339   5.065  1.00  0.00    -0.353 N 
ATOM      2  HN  UNL     1      65.910   4.802   4.225  1.00  0.00     0.166 HD
HETATM    3  C   UNL     1      65.588   6.505   5.364  1.00  0.00     0.085 A 
HETATM    4  S   UNL     1      66.159   7.197   6.834  1.00  0.00    -0.072 SA
HETATM    5  C   UNL     1      67.174   5.838   7.090  1.00  0.00     0.030 A 
HETATM    6  C   UNL     1      67.021   4.942   6.046  1.00  0.00     0.021 A 
HETATM    7  C   UNL     1      67.700   3.630   5.870  1.00  0.00     0.069 C 
ENDROOT
BRANCH   3   8
HETATM    8  C   UNL     1      64.625   7.219   4.507  1.00  0.00    -0.002 A 
HETATM    9  C   UNL     1      64.098   8.476   4.841  1.00  0.00     0.015 A 
HETATM   10  C   UNL     1      63.200   9.127   3.988  1.00  0.00     0.017 A 
HETATM   11  C   UNL     1      62.801   8.534   2.780  1.00  0.00     0.048 A 
HETATM   12  C   UNL     1      63.309   7.271   2.453  1.00  0.00     0.017 A 
HETATM   13  C   UNL     1      64.204   6.621   3.309  1.00  0.00     0.015 A 
BRANCH  11  14
HETATM   14  C   UNL     1      61.843   9.257   1.866  1.00  0.00     0.417 C 
HETATM   15  F   UNL     1      62.183   9.184   0.550  1.00  0.00    -0.166 F 
HETATM   16  F   UNL     1      60.575   8.768   1.951  1.00  0.00    -0.166 F 
HETATM   17  F   UNL     1      61.751  10.585   2.156  1.00  0.00    -0.166 F 
ENDBRANCH  11  14
ENDBRANCH   3   8
BRANCH   5  18
HETATM   18  C   UNL     1      68.047   5.770   8.292  1.00  0.00     0.212 C 
BRANCH  18  19
HETATM   19  O   UNL     1      67.730   6.882   9.120  1.00  0.00    -0.396 OA
HETATM   20  H   UNL     1      68.518   7.436   9.232  1.00  0.00     0.209 HD
ENDBRANCH  18  19
ENDBRANCH   5  18
TORSDOF 4
ENDMDL
MODEL 4
REMARK VINA RESULT:      -4.9      1.561      2.248
REMARK  4 active torsions:
REMARK  status: ('A' for Active; 'I' for Inactive)
REMARK    1  A    between atoms: C_3  and  C_8 
REMARK    2  A    between atoms: C_5  and  C_17 
REMARK    3  A    between atoms: C_7  and  C_9 
REMARK    4  A    between atoms: C_17  and  O_19 
ROOT
HETATM    1  N   UNL     1      66.306   4.813   5.434  1.00  0.00    -0.353 N 
ATOM      2  HN  UNL     1      66.174   4.581   4.449  1.00  0.00     0.166 HD
HETATM    3  C   UNL     1      65.732   5.830   6.045  1.00  0.00     0.085 A 
HETATM    4  S   UNL     1      66.160   5.996   7.705  1.00  0.00    -0.072 SA
HETATM    5  C   UNL     1      67.159   4.607   7.597  1.00  0.00     0.030 A 
HETATM    6  C   UNL     1      67.111   4.101   6.309  1.00  0.00     0.021 A 
HETATM    7  C   UNL     1      67.816   2.903   5.778  1.00  0.00     0.069 C 
ENDROOT
BRANCH   3   8
HETATM    8  C   UNL     1      64.846   6.803   5.383  1.00  0.00    -0.002 A 
HETATM    9  C   UNL     1      64.967   8.188   5.568  1.00  0.00     0.015 A 
HETATM   10  C   UNL     1      64.114   9.079   4.905  1.00  0.00     0.017 A 
HETATM   11  C   UNL     1      63.114   8.604   4.043  1.00  0.00     0.048 A 
HETATM   12  C   UNL     1      62.977   7.221   3.871  1.00  0.00     0.017 A 
HETATM   13  C   UNL     1      63.827   6.334   4.538  1.00  0.00     0.015 A 
BRANCH  11  14
HETATM   14  C   UNL     1      62.213   9.578   3.325  1.00  0.00     0.417 C 
HETATM   15  F   UNL     1      62.354  10.865   3.746  1.00  0.00    -0.166 F 
HETATM   16  F   UNL     1      62.435   9.598   1.982  1.00  0.00    -0.166 F 
HETATM   17  F   UNL     1      60.894   9.277   3.482  1.00  0.00    -0.166 F 
ENDBRANCH  11  14
ENDBRANCH   3   8
BRANCH   5  18
HETATM   18  C   UNL     1      67.919   4.135   8.784  1.00  0.00     0.212 C 
BRANCH  18  19
HETATM   19  O   UNL     1      67.295   2.946   9.252  1.00  0.00    -0.396 OA
HETATM   20  H   UNL     1      67.000   3.075  10.167  1.00  0.00     0.209 HD
ENDBRANCH  18  19
ENDBRANCH   5  18
TORSDOF 4
ENDMDL
MODEL 5
REMARK VINA RESULT:      -4.9      5.170      7.219
REMARK  4 active torsions:
REMARK  status: ('A' for Active; 'I' for Inactive)
REMARK    1  A    between atoms: C_3  and  C_8 
REMARK    2  A    between atoms: C_5  and  C_17 
REMARK    3  A    between atoms: C_7  and  C_9 
REMARK    4  A    between atoms: C_17  and  O_19 
ROOT
HETATM    1  N   UNL     1      63.134   7.801   3.103  1.00  0.00    -0.353 N 
ATOM      2  HN  UNL     1      63.210   6.925   2.587  1.00  0.00     0.166 HD
HETATM    3  C   UNL     1      63.686   8.026   4.279  1.00  0.00     0.085 A 
HETATM    4  S   UNL     1      63.367   9.588   4.929  1.00  0.00    -0.072 SA
HETATM    5  C   UNL     1      62.450   9.991   3.538  1.00  0.00     0.030 A 
HETATM    6  C   UNL     1      62.438   8.917   2.664  1.00  0.00     0.021 A 
HETATM    7  C   UNL     1      61.772   8.835   1.336  1.00  0.00     0.069 C 
ENDROOT
BRANCH   3   8
HETATM    8  C   UNL     1      64.462   7.027   5.036  1.00  0.00    -0.002 A 
HETATM    9  C   UNL     1      64.458   6.966   6.437  1.00  0.00     0.015 A 
HETATM   10  C   UNL     1      65.196   5.988   7.115  1.00  0.00     0.017 A 
HETATM   11  C   UNL     1      65.963   5.050   6.407  1.00  0.00     0.048 A 
HETATM   12  C   UNL     1      65.985   5.120   5.008  1.00  0.00     0.017 A 
HETATM   13  C   UNL     1      65.250   6.100   4.334  1.00  0.00     0.015 A 
BRANCH  11  14
HETATM   14  C   UNL     1      66.741   3.995   7.153  1.00  0.00     0.417 C 
HETATM   15  F   UNL     1      67.942   3.698   6.585  1.00  0.00    -0.166 F 
HETATM   16  F   UNL     1      67.015   4.362   8.436  1.00  0.00    -0.166 F 
HETATM   17  F   UNL     1      66.065   2.815   7.237  1.00  0.00    -0.166 F 
ENDBRANCH  11  14
ENDBRANCH   3   8
BRANCH   5  18
HETATM   18  C   UNL     1      61.806  11.326   3.424  1.00  0.00     0.212 C 
BRANCH  18  19
HETATM   19  O   UNL     1      62.157  12.074   4.581  1.00  0.00    -0.396 OA
HETATM   20  H   UNL     1      61.941  11.561   5.375  1.00  0.00     0.209 HD
ENDBRANCH  18  19
ENDBRANCH   5  18
TORSDOF 4
ENDMDL
MODEL 6
REMARK VINA RESULT:      -4.9      5.248      6.903
REMARK  4 active torsions:
REMARK  status: ('A' for Active; 'I' for Inactive)
REMARK    1  A    between atoms: C_3  and  C_8 
REMARK    2  A    between atoms: C_5  and  C_17 
REMARK    3  A    between atoms: C_7  and  C_9 
REMARK    4  A    between atoms: C_17  and  O_19 
ROOT
HETATM    1  N   UNL     1      60.291   6.483   5.145  1.00  0.00    -0.353 N 
ATOM      2  HN  UNL     1      60.428   6.044   6.055  1.00  0.00     0.166 HD
HETATM    3  C   UNL     1      61.230   7.118   4.472  1.00  0.00     0.085 A 
HETATM    4  S   UNL     1      60.705   7.786   2.975  1.00  0.00    -0.072 SA
HETATM    5  C   UNL     1      59.128   7.168   3.240  1.00  0.00     0.030 A 
HETATM    6  C   UNL     1      59.092   6.494   4.449  1.00  0.00     0.021 A 
HETATM    7  C   UNL     1      57.931   5.797   5.065  1.00  0.00     0.069 C 
ENDROOT
BRANCH   3   8
HETATM    8  C   UNL     1      62.607   7.317   4.956  1.00  0.00    -0.002 A 
HETATM    9  C   UNL     1      63.094   6.718   6.128  1.00  0.00     0.015 A 
HETATM   10  C   UNL     1      64.416   6.919   6.542  1.00  0.00     0.017 A 
HETATM   11  C   UNL     1      65.284   7.731   5.796  1.00  0.00     0.048 A 
HETATM   12  C   UNL     1      64.796   8.346   4.636  1.00  0.00     0.017 A 
HETATM   13  C   UNL     1      63.474   8.146   4.227  1.00  0.00     0.015 A 
BRANCH  11  14
HETATM   14  C   UNL     1      66.709   7.926   6.249  1.00  0.00     0.417 C 
HETATM   15  F   UNL     1      66.868   8.954   7.127  1.00  0.00    -0.166 F 
HETATM   16  F   UNL     1      67.212   6.824   6.871  1.00  0.00    -0.166 F 
HETATM   17  F   UNL     1      67.552   8.188   5.211  1.00  0.00    -0.166 F 
ENDBRANCH  11  14
ENDBRANCH   3   8
BRANCH   5  18
HETATM   18  C   UNL     1      58.050   7.408   2.244  1.00  0.00     0.212 C 
BRANCH  18  19
HETATM   19  O   UNL     1      58.507   8.413   1.347  1.00  0.00    -0.396 OA
HETATM   20  H   UNL     1      59.458   8.303   1.196  1.00  0.00     0.209 HD
ENDBRANCH  18  19
ENDBRANCH   5  18
TORSDOF 4
ENDMDL
MODEL 7
REMARK VINA RESULT:      -4.5      6.454      7.714
REMARK  4 active torsions:
REMARK  status: ('A' for Active; 'I' for Inactive)
REMARK    1  A    between atoms: C_3  and  C_8 
REMARK    2  A    between atoms: C_5  and  C_17 
REMARK    3  A    between atoms: C_7  and  C_9 
REMARK    4  A    between atoms: C_17  and  O_19 
ROOT
HETATM    1  N   UNL     1      60.883   6.909   4.923  1.00  0.00    -0.353 N 
ATOM      2  HN  UNL     1      59.937   6.731   4.586  1.00  0.00     0.166 HD
HETATM    3  C   UNL     1      61.386   6.409   6.035  1.00  0.00     0.085 A 
HETATM    4  S   UNL     1      63.002   6.903   6.369  1.00  0.00    -0.072 SA
HETATM    5  C   UNL     1      63.030   7.826   4.925  1.00  0.00     0.030 A 
HETATM    6  C   UNL     1      61.813   7.707   4.275  1.00  0.00     0.021 A 
HETATM    7  C   UNL     1      61.407   8.331   2.987  1.00  0.00     0.069 C 
ENDROOT
BRANCH   3   8
HETATM    8  C   UNL     1      60.640   5.551   6.971  1.00  0.00    -0.002 A 
HETATM    9  C   UNL     1      60.855   4.169   7.070  1.00  0.00     0.015 A 
HETATM   10  C   UNL     1      60.136   3.394   7.988  1.00  0.00     0.017 A 
HETATM   11  C   UNL     1      59.177   3.983   8.826  1.00  0.00     0.048 A 
HETATM   12  C   UNL     1      58.945   5.360   8.717  1.00  0.00     0.017 A 
HETATM   13  C   UNL     1      59.663   6.130   7.797  1.00  0.00     0.015 A 
BRANCH  11  14
HETATM   14  C   UNL     1      58.421   3.135   9.818  1.00  0.00     0.417 C 
HETATM   15  F   UNL     1      58.728   1.810   9.751  1.00  0.00    -0.166 F 
HETATM   16  F   UNL     1      58.658   3.508  11.107  1.00  0.00    -0.166 F 
HETATM   17  F   UNL     1      57.072   3.215   9.648  1.00  0.00    -0.166 F 
ENDBRANCH  11  14
ENDBRANCH   3   8
BRANCH   5  18
HETATM   18  C   UNL     1      64.243   8.602   4.553  1.00  0.00     0.212 C 
BRANCH  18  19
HETATM   19  O   UNL     1      64.682   9.297   5.713  1.00  0.00    -0.396 OA
HETATM   20  H   UNL     1      63.947   9.814   6.078  1.00  0.00     0.209 HD
ENDBRANCH  18  19
ENDBRANCH   5  18
TORSDOF 4
ENDMDL
MODEL 8
REMARK VINA RESULT:      -4.4      2.526      3.353
REMARK  4 active torsions:
REMARK  status: ('A' for Active; 'I' for Inactive)
REMARK    1  A    between atoms: C_3  and  C_8 
REMARK    2  A    between atoms: C_5  and  C_17 
REMARK    3  A    between atoms: C_7  and  C_9 
REMARK    4  A    between atoms: C_17  and  O_19 
ROOT
HETATM    1  N   UNL     1      63.804   6.175   5.578  1.00  0.00    -0.353 N 
ATOM      2  HN  UNL     1      63.234   5.329   5.564  1.00  0.00     0.166 HD
HETATM    3  C   UNL     1      63.552   7.259   4.871  1.00  0.00     0.085 A 
HETATM    4  S   UNL     1      64.702   8.524   5.073  1.00  0.00    -0.072 SA
HETATM    5  C   UNL     1      65.576   7.564   6.192  1.00  0.00     0.030 A 
HETATM    6  C   UNL     1      64.947   6.341   6.345  1.00  0.00     0.021 A 
HETATM    7  C   UNL     1      65.358   5.212   7.222  1.00  0.00     0.069 C 
ENDROOT
BRANCH   3   8
HETATM    8  C   UNL     1      62.429   7.390   3.926  1.00  0.00    -0.002 A 
HETATM    9  C   UNL     1      62.588   7.879   2.621  1.00  0.00     0.015 A 
HETATM   10  C   UNL     1      61.497   7.970   1.750  1.00  0.00     0.017 A 
HETATM   11  C   UNL     1      60.215   7.579   2.165  1.00  0.00     0.048 A 
HETATM   12  C   UNL     1      60.048   7.108   3.473  1.00  0.00     0.017 A 
HETATM   13  C   UNL     1      61.139   7.022   4.342  1.00  0.00     0.015 A 
BRANCH  11  14
HETATM   14  C   UNL     1      59.052   7.670   1.208  1.00  0.00     0.417 C 
HETATM   15  F   UNL     1      59.133   8.722   0.349  1.00  0.00    -0.166 F 
HETATM   16  F   UNL     1      58.932   6.560   0.429  1.00  0.00    -0.166 F 
HETATM   17  F   UNL     1      57.859   7.805   1.853  1.00  0.00    -0.166 F 
ENDBRANCH  11  14
ENDBRANCH   3   8
BRANCH   5  18
HETATM   18  C   UNL     1      66.818   8.088   6.820  1.00  0.00     0.212 C 
BRANCH  18  19
HETATM   19  O   UNL     1      67.920   7.407   6.233  1.00  0.00    -0.396 OA
HETATM   20  H   UNL     1      67.661   6.495   6.025  1.00  0.00     0.209 HD
ENDBRANCH  18  19
ENDBRANCH   5  18
TORSDOF 4
ENDMDL
MODEL 9
REMARK VINA RESULT:      -4.4      6.032      7.411
REMARK  4 active torsions:
REMARK  status: ('A' for Active; 'I' for Inactive)
REMARK    1  A    between atoms: C_3  and  C_8 
REMARK    2  A    between atoms: C_5  and  C_17 
REMARK    3  A    between atoms: C_7  and  C_9 
REMARK    4  A    between atoms: C_17  and  O_19 
ROOT
HETATM    1  N   UNL     1      60.064   8.392   3.390  1.00  0.00    -0.353 N 
ATOM      2  HN  UNL     1      59.598   9.033   2.748  1.00  0.00     0.166 HD
HETATM    3  C   UNL     1      59.496   7.334   3.933  1.00  0.00     0.085 A 
HETATM    4  S   UNL     1      60.515   6.449   5.003  1.00  0.00    -0.072 SA
HETATM    5  C   UNL     1      61.800   7.542   4.700  1.00  0.00     0.030 A 
HETATM    6  C   UNL     1      61.380   8.515   3.808  1.00  0.00     0.021 A 
HETATM    7  C   UNL     1      62.173   9.651   3.266  1.00  0.00     0.069 C 
ENDROOT
BRANCH   3   8
HETATM    8  C   UNL     1      58.091   6.946   3.721  1.00  0.00    -0.002 A 
HETATM    9  C   UNL     1      57.467   7.009   2.466  1.00  0.00     0.015 A 
HETATM   10  C   UNL     1      56.134   6.613   2.305  1.00  0.00     0.017 A 
HETATM   11  C   UNL     1      55.388   6.149   3.399  1.00  0.00     0.048 A 
HETATM   12  C   UNL     1      56.001   6.103   4.658  1.00  0.00     0.017 A 
HETATM   13  C   UNL     1      57.331   6.503   4.816  1.00  0.00     0.015 A 
BRANCH  11  14
HETATM   14  C   UNL     1      53.957   5.713   3.205  1.00  0.00     0.417 C 
HETATM   15  F   UNL     1      53.464   5.992   1.968  1.00  0.00    -0.166 F 
HETATM   16  F   UNL     1      53.795   4.372   3.378  1.00  0.00    -0.166 F 
HETATM   17  F   UNL     1      53.109   6.309   4.089  1.00  0.00    -0.166 F 
ENDBRANCH  11  14
ENDBRANCH   3   8
BRANCH   5  18
HETATM   18  C   UNL     1      63.113   7.362   5.374  1.00  0.00     0.212 C 
BRANCH  18  19
HETATM   19  O   UNL     1      62.957   7.749   6.733  1.00  0.00    -0.396 OA
HETATM   20  H   UNL     1      62.486   7.051   7.215  1.00  0.00     0.209 HD
ENDBRANCH  18  19
ENDBRANCH   5  18
TORSDOF 4
ENDMDL
