MODEL 1
REMARK VINA RESULT:      -5.1      0.000      0.000
REMARK  3 active torsions:
REMARK  status: ('A' for Active; 'I' for Inactive)
REMARK    1  A    between atoms: C_1  and  C_6 
REMARK    2  A    between atoms: C_6  and  O_11 
REMARK    3  A    between atoms: C_10  and  N_12 
ROOT
HETATM    1  C   UNL     1      63.507   7.308   5.314  1.00  0.00     0.081 A 
HETATM    2  S   UNL     1      63.389   6.671   3.733  1.00  0.00    -0.084 SA
HETATM    3  C   UNL     1      63.137   8.639   5.338  1.00  0.00     0.038 A 
HETATM    4  C   UNL     1      62.747   9.150   4.056  1.00  0.00    -0.015 A 
HETATM    5  C   UNL     1      62.837   8.164   3.074  1.00  0.00     0.016 A 
HETATM    6  C   UNL     1      62.292  10.438   3.675  1.00  0.00     0.041 A 
HETATM    7  C   UNL     1      62.486   8.429   1.738  1.00  0.00     0.022 A 
HETATM    8  C   UNL     1      61.977  10.731   2.342  1.00  0.00     0.026 A 
HETATM    9  C   UNL     1      62.036   9.711   1.400  1.00  0.00     0.030 A 
ENDROOT
BRANCH   1  10
HETATM   10  C   UNL     1      63.948   6.456   6.404  1.00  0.00     0.299 C 
HETATM   11  O   UNL     1      63.764   5.251   6.516  1.00  0.00    -0.259 OA
BRANCH  10  12
HETATM   12  O   UNL     1      64.623   7.213   7.324  1.00  0.00    -0.322 OA
HETATM   13  C   UNL     1      65.936   6.741   7.630  1.00  0.00     0.213 C 
ENDBRANCH  10  12
ENDBRANCH   1  10
BRANCH   8  14
HETATM   14  N   UNL     1      61.383  11.957   2.016  1.00  0.00    -0.399 N 
HETATM   15  H   UNL     1      61.821  12.561   1.374  1.00  0.00     0.156 HD
HETATM   16  H   UNL     1      60.525  12.213   2.428  1.00  0.00     0.156 HD
ENDBRANCH   8  14
TORSDOF 3
ENDMDL
MODEL 2
REMARK VINA RESULT:      -4.7      1.821      2.272
REMARK  3 active torsions:
REMARK  status: ('A' for Active; 'I' for Inactive)
REMARK    1  A    between atoms: C_1  and  C_6 
REMARK    2  A    between atoms: C_6  and  O_11 
REMARK    3  A    between atoms: C_10  and  N_12 
ROOT
HETATM    1  C   UNL     1      65.275   7.957   5.371  1.00  0.00     0.081 A 
HETATM    2  S   UNL     1      65.270   6.633   4.290  1.00  0.00    -0.084 SA
HETATM    3  C   UNL     1      64.290   8.868   5.038  1.00  0.00     0.038 A 
HETATM    4  C   UNL     1      63.516   8.485   3.894  1.00  0.00    -0.015 A 
HETATM    5  C   UNL     1      63.950   7.264   3.380  1.00  0.00     0.016 A 
HETATM    6  C   UNL     1      62.422   9.130   3.261  1.00  0.00     0.041 A 
HETATM    7  C   UNL     1      63.325   6.678   2.264  1.00  0.00     0.022 A 
HETATM    8  C   UNL     1      61.814   8.581   2.126  1.00  0.00     0.026 A 
HETATM    9  C   UNL     1      62.245   7.340   1.669  1.00  0.00     0.030 A 
ENDROOT
BRANCH   1  10
HETATM   10  C   UNL     1      66.237   7.999   6.457  1.00  0.00     0.299 C 
HETATM   11  O   UNL     1      66.733   8.998   6.961  1.00  0.00    -0.259 OA
BRANCH  10  12
HETATM   12  O   UNL     1      66.525   6.721   6.855  1.00  0.00    -0.322 OA
HETATM   13  C   UNL     1      66.153   6.422   8.201  1.00  0.00     0.213 C 
ENDBRANCH  10  12
ENDBRANCH   1  10
BRANCH   8  14
HETATM   14  N   UNL     1      60.642   9.151   1.613  1.00  0.00    -0.399 N 
HETATM   15  H   UNL     1      60.081   8.641   0.984  1.00  0.00     0.156 HD
HETATM   16  H   UNL     1      60.379  10.060   1.883  1.00  0.00     0.156 HD
ENDBRANCH   8  14
TORSDOF 3
ENDMDL
MODEL 3
REMARK VINA RESULT:      -4.4      1.893      2.461
REMARK  3 active torsions:
REMARK  status: ('A' for Active; 'I' for Inactive)
REMARK    1  A    between atoms: C_1  and  C_6 
REMARK    2  A    between atoms: C_6  and  O_11 
REMARK    3  A    between atoms: C_10  and  N_12 
ROOT
HETATM    1  C   UNL     1      64.569   6.668   4.388  1.00  0.00     0.081 A 
HETATM    2  S   UNL     1      64.510   7.776   5.688  1.00  0.00    -0.084 SA
HETATM    3  C   UNL     1      63.854   7.141   3.305  1.00  0.00     0.038 A 
HETATM    4  C   UNL     1      63.253   8.424   3.530  1.00  0.00    -0.015 A 
HETATM    5  C   UNL     1      63.539   8.895   4.810  1.00  0.00     0.016 A 
HETATM    6  C   UNL     1      62.470   9.239   2.672  1.00  0.00     0.041 A 
HETATM    7  C   UNL     1      63.069  10.145   5.250  1.00  0.00     0.022 A 
HETATM    8  C   UNL     1      61.961  10.469   3.107  1.00  0.00     0.026 A 
HETATM    9  C   UNL     1      62.303  10.925   4.375  1.00  0.00     0.030 A 
ENDROOT
BRANCH   1  10
HETATM   10  C   UNL     1      65.311   5.428   4.530  1.00  0.00     0.299 C 
HETATM   11  O   UNL     1      64.852   4.293   4.527  1.00  0.00    -0.259 OA
BRANCH  10  12
HETATM   12  O   UNL     1      66.642   5.711   4.672  1.00  0.00    -0.322 OA
HETATM   13  C   UNL     1      67.297   4.978   5.708  1.00  0.00     0.213 C 
ENDBRANCH  10  12
ENDBRANCH   1  10
BRANCH   8  14
HETATM   14  N   UNL     1      61.326  11.325   2.199  1.00  0.00    -0.399 N 
HETATM   15  H   UNL     1      61.653  11.390   1.272  1.00  0.00     0.156 HD
HETATM   16  H   UNL     1      60.552  11.861   2.486  1.00  0.00     0.156 HD
ENDBRANCH   8  14
TORSDOF 3
ENDMDL
MODEL 4
REMARK VINA RESULT:      -4.4      4.375      6.792
REMARK  3 active torsions:
REMARK  status: ('A' for Active; 'I' for Inactive)
REMARK    1  A    between atoms: C_1  and  C_6 
REMARK    2  A    between atoms: C_6  and  O_11 
REMARK    3  A    between atoms: C_10  and  N_12 
ROOT
HETATM    1  C   UNL     1      65.046   7.701   5.628  1.00  0.00     0.081 A 
HETATM    2  S   UNL     1      66.659   8.034   6.084  1.00  0.00    -0.084 SA
HETATM    3  C   UNL     1      64.683   6.421   6.002  1.00  0.00     0.038 A 
HETATM    4  C   UNL     1      65.726   5.701   6.672  1.00  0.00    -0.015 A 
HETATM    5  C   UNL     1      66.877   6.477   6.788  1.00  0.00     0.016 A 
HETATM    6  C   UNL     1      65.739   4.391   7.217  1.00  0.00     0.041 A 
HETATM    7  C   UNL     1      68.029   5.984   7.429  1.00  0.00     0.022 A 
HETATM    8  C   UNL     1      66.889   3.870   7.823  1.00  0.00     0.026 A 
HETATM    9  C   UNL     1      68.004   4.689   7.960  1.00  0.00     0.030 A 
ENDROOT
BRANCH   1  10
HETATM   10  C   UNL     1      64.265   8.717   4.946  1.00  0.00     0.299 C 
HETATM   11  O   UNL     1      63.649   8.588   3.895  1.00  0.00    -0.259 OA
BRANCH  10  12
HETATM   12  O   UNL     1      64.311   9.881   5.664  1.00  0.00    -0.322 OA
HETATM   13  C   UNL     1      63.149  10.702   5.538  1.00  0.00     0.213 C 
ENDBRANCH  10  12
ENDBRANCH   1  10
BRANCH   8  14
HETATM   14  N   UNL     1      66.833   2.640   8.491  1.00  0.00    -0.399 N 
HETATM   15  H   UNL     1      67.419   2.473   9.265  1.00  0.00     0.156 HD
HETATM   16  H   UNL     1      66.207   1.944   8.188  1.00  0.00     0.156 HD
ENDBRANCH   8  14
TORSDOF 3
ENDMDL
MODEL 5
REMARK VINA RESULT:      -4.2      1.677      2.164
REMARK  3 active torsions:
REMARK  status: ('A' for Active; 'I' for Inactive)
REMARK    1  A    between atoms: C_1  and  C_6 
REMARK    2  A    between atoms: C_6  and  O_11 
REMARK    3  A    between atoms: C_10  and  N_12 
ROOT
HETATM    1  C   UNL     1      64.831   6.985   6.070  1.00  0.00     0.081 A 
HETATM    2  S   UNL     1      63.360   6.114   6.089  1.00  0.00    -0.084 SA
HETATM    3  C   UNL     1      64.749   8.073   5.222  1.00  0.00     0.038 A 
HETATM    4  C   UNL     1      63.472   8.207   4.582  1.00  0.00    -0.015 A 
HETATM    5  C   UNL     1      62.605   7.189   4.975  1.00  0.00     0.016 A 
HETATM    6  C   UNL     1      62.993   9.185   3.674  1.00  0.00     0.041 A 
HETATM    7  C   UNL     1      61.286   7.125   4.490  1.00  0.00     0.022 A 
HETATM    8  C   UNL     1      61.697   9.115   3.150  1.00  0.00     0.026 A 
HETATM    9  C   UNL     1      60.846   8.111   3.599  1.00  0.00     0.030 A 
ENDROOT
BRANCH   1  10
HETATM   10  C   UNL     1      65.946   6.536   6.885  1.00  0.00     0.299 C 
HETATM   11  O   UNL     1      66.949   5.949   6.499  1.00  0.00    -0.259 OA
BRANCH  10  12
HETATM   12  O   UNL     1      65.715   6.873   8.191  1.00  0.00    -0.322 OA
HETATM   13  C   UNL     1      66.833   6.684   9.059  1.00  0.00     0.213 C 
ENDBRANCH  10  12
ENDBRANCH   1  10
BRANCH   8  14
HETATM   14  N   UNL     1      61.194  10.172   2.381  1.00  0.00    -0.399 N 
HETATM   15  H   UNL     1      60.221  10.283   2.272  1.00  0.00     0.156 HD
HETATM   16  H   UNL     1      61.813  10.805   1.950  1.00  0.00     0.156 HD
ENDBRANCH   8  14
TORSDOF 3
ENDMDL
MODEL 6
REMARK VINA RESULT:      -4.1      2.042      2.502
REMARK  3 active torsions:
REMARK  status: ('A' for Active; 'I' for Inactive)
REMARK    1  A    between atoms: C_1  and  C_6 
REMARK    2  A    between atoms: C_6  and  O_11 
REMARK    3  A    between atoms: C_10  and  N_12 
ROOT
HETATM    1  C   UNL     1      64.532   6.999   6.055  1.00  0.00     0.081 A 
HETATM    2  S   UNL     1      64.815   8.404   5.123  1.00  0.00    -0.084 SA
HETATM    3  C   UNL     1      63.242   6.538   5.872  1.00  0.00     0.038 A 
HETATM    4  C   UNL     1      62.473   7.333   4.958  1.00  0.00    -0.015 A 
HETATM    5  C   UNL     1      63.223   8.399   4.466  1.00  0.00     0.016 A 
HETATM    6  C   UNL     1      61.139   7.181   4.500  1.00  0.00     0.041 A 
HETATM    7  C   UNL     1      62.681   9.306   3.537  1.00  0.00     0.022 A 
HETATM    8  C   UNL     1      60.570   8.096   3.607  1.00  0.00     0.026 A 
HETATM    9  C   UNL     1      61.363   9.121   3.103  1.00  0.00     0.030 A 
ENDROOT
BRANCH   1  10
HETATM   10  C   UNL     1      65.592   6.459   6.887  1.00  0.00     0.299 C 
HETATM   11  O   UNL     1      66.516   5.741   6.526  1.00  0.00    -0.259 OA
BRANCH  10  12
HETATM   12  O   UNL     1      65.412   6.878   8.178  1.00  0.00    -0.322 OA
HETATM   13  C   UNL     1      66.336   6.325   9.115  1.00  0.00     0.213 C 
ENDBRANCH  10  12
ENDBRANCH   1  10
BRANCH   8  14
HETATM   14  N   UNL     1      59.311   7.842   3.049  1.00  0.00    -0.399 N 
HETATM   15  H   UNL     1      59.153   7.006   2.552  1.00  0.00     0.156 HD
HETATM   16  H   UNL     1      58.585   8.498   3.154  1.00  0.00     0.156 HD
ENDBRANCH   8  14
TORSDOF 3
ENDMDL
MODEL 7
REMARK VINA RESULT:      -4.1      2.524      3.120
REMARK  3 active torsions:
REMARK  status: ('A' for Active; 'I' for Inactive)
REMARK    1  A    between atoms: C_1  and  C_6 
REMARK    2  A    between atoms: C_6  and  O_11 
REMARK    3  A    between atoms: C_10  and  N_12 
ROOT
HETATM    1  C   UNL     1      64.540   7.845   5.494  1.00  0.00     0.081 A 
HETATM    2  S   UNL     1      63.518   6.706   6.257  1.00  0.00    -0.084 SA
HETATM    3  C   UNL     1      63.905   8.431   4.416  1.00  0.00     0.038 A 
HETATM    4  C   UNL     1      62.569   7.955   4.208  1.00  0.00    -0.015 A 
HETATM    5  C   UNL     1      62.223   6.997   5.159  1.00  0.00     0.016 A 
HETATM    6  C   UNL     1      61.601   8.318   3.236  1.00  0.00     0.041 A 
HETATM    7  C   UNL     1      60.950   6.400   5.165  1.00  0.00     0.022 A 
HETATM    8  C   UNL     1      60.342   7.705   3.203  1.00  0.00     0.026 A 
HETATM    9  C   UNL     1      60.018   6.786   4.194  1.00  0.00     0.030 A 
ENDROOT
BRANCH   1  10
HETATM   10  C   UNL     1      65.878   8.074   6.011  1.00  0.00     0.299 C 
HETATM   11  O   UNL     1      66.247   7.953   7.171  1.00  0.00    -0.259 OA
BRANCH  10  12
HETATM   12  O   UNL     1      66.699   8.457   4.985  1.00  0.00    -0.322 OA
HETATM   13  C   UNL     1      67.575   7.433   4.513  1.00  0.00     0.213 C 
ENDBRANCH  10  12
ENDBRANCH   1  10
BRANCH   8  14
HETATM   14  N   UNL     1      59.351   8.186   2.338  1.00  0.00    -0.399 N 
HETATM   15  H   UNL     1      58.601   7.604   2.076  1.00  0.00     0.156 HD
HETATM   16  H   UNL     1      59.404   9.107   1.994  1.00  0.00     0.156 HD
ENDBRANCH   8  14
TORSDOF 3
ENDMDL
MODEL 8
REMARK VINA RESULT:      -4.0      1.639      2.000
REMARK  3 active torsions:
REMARK  status: ('A' for Active; 'I' for Inactive)
REMARK    1  A    between atoms: C_1  and  C_6 
REMARK    2  A    between atoms: C_6  and  O_11 
REMARK    3  A    between atoms: C_10  and  N_12 
ROOT
HETATM    1  C   UNL     1      62.297   6.599   4.991  1.00  0.00     0.081 A 
HETATM    2  S   UNL     1      62.387   6.155   3.343  1.00  0.00    -0.084 SA
HETATM    3  C   UNL     1      62.146   7.966   5.125  1.00  0.00     0.038 A 
HETATM    4  C   UNL     1      62.097   8.664   3.874  1.00  0.00    -0.015 A 
HETATM    5  C   UNL     1      62.216   7.782   2.802  1.00  0.00     0.016 A 
HETATM    6  C   UNL     1      61.934  10.045   3.593  1.00  0.00     0.041 A 
HETATM    7  C   UNL     1      62.176   8.238   1.472  1.00  0.00     0.022 A 
HETATM    8  C   UNL     1      61.932  10.522   2.277  1.00  0.00     0.026 A 
HETATM    9  C   UNL     1      62.008   9.607   1.233  1.00  0.00     0.030 A 
ENDROOT
BRANCH   1  10
HETATM   10  C   UNL     1      62.379   5.577   6.019  1.00  0.00     0.299 C 
HETATM   11  O   UNL     1      63.212   4.683   6.101  1.00  0.00    -0.259 OA
BRANCH  10  12
HETATM   12  O   UNL     1      61.363   5.757   6.918  1.00  0.00    -0.322 OA
HETATM   13  C   UNL     1      60.731   4.551   7.347  1.00  0.00     0.213 C 
ENDBRANCH  10  12
ENDBRANCH   1  10
BRANCH   8  14
HETATM   14  N   UNL     1      61.614  11.861   2.017  1.00  0.00    -0.399 N 
HETATM   15  H   UNL     1      60.683  12.119   1.827  1.00  0.00     0.156 HD
HETATM   16  H   UNL     1      62.322  12.545   2.026  1.00  0.00     0.156 HD
ENDBRANCH   8  14
TORSDOF 3
ENDMDL
MODEL 9
REMARK VINA RESULT:      -4.0      3.563      5.441
REMARK  3 active torsions:
REMARK  status: ('A' for Active; 'I' for Inactive)
REMARK    1  A    between atoms: C_1  and  C_6 
REMARK    2  A    between atoms: C_6  and  O_11 
REMARK    3  A    between atoms: C_10  and  N_12 
ROOT
HETATM    1  C   UNL     1      61.890   7.875   4.013  1.00  0.00     0.081 A 
HETATM    2  S   UNL     1      61.892   6.654   5.208  1.00  0.00    -0.084 SA
HETATM    3  C   UNL     1      63.102   8.540   3.985  1.00  0.00     0.038 A 
HETATM    4  C   UNL     1      64.048   8.048   4.943  1.00  0.00    -0.015 A 
HETATM    5  C   UNL     1      63.510   6.999   5.687  1.00  0.00     0.016 A 
HETATM    6  C   UNL     1      65.384   8.445   5.209  1.00  0.00     0.041 A 
HETATM    7  C   UNL     1      64.265   6.345   6.678  1.00  0.00     0.022 A 
HETATM    8  C   UNL     1      66.136   7.832   6.218  1.00  0.00     0.026 A 
HETATM    9  C   UNL     1      65.581   6.761   6.909  1.00  0.00     0.030 A 
ENDROOT
BRANCH   1  10
HETATM   10  C   UNL     1      60.707   8.085   3.197  1.00  0.00     0.299 C 
HETATM   11  O   UNL     1      59.547   7.852   3.512  1.00  0.00    -0.259 OA
BRANCH  10  12
HETATM   12  O   UNL     1      61.079   8.599   1.984  1.00  0.00    -0.322 OA
HETATM   13  C   UNL     1      60.218   8.246   0.902  1.00  0.00     0.213 C 
ENDBRANCH  10  12
ENDBRANCH   1  10
BRANCH   8  14
HETATM   14  N   UNL     1      67.497   8.131   6.358  1.00  0.00    -0.399 N 
HETATM   15  H   UNL     1      68.108   8.015   5.595  1.00  0.00     0.156 HD
HETATM   16  H   UNL     1      67.842   8.459   7.220  1.00  0.00     0.156 HD
ENDBRANCH   8  14
TORSDOF 3
ENDMDL
