MODEL 1
REMARK VINA RESULT:      -5.0      0.000      0.000
REMARK  1 active torsions:
REMARK  status: ('A' for Active; 'I' for Inactive)
REMARK       I    between atoms: C_1  and  N_2 
REMARK    1  A    between atoms: C_1  and  C_3 
ROOT
HETATM    1  C   UNL     1      65.570   7.434   4.928  1.00  0.00     0.103 C 
HETATM    2  N   UNL     1      67.193   8.148   6.723  1.00  0.00    -0.074 N 
HETATM    3  C   UNL     1      67.001   7.869   5.298  1.00  0.00     0.246 C 
HETATM    4  C   UNL     1      65.185   6.242   5.812  1.00  0.00     0.017 C 
HETATM    5  C   UNL     1      66.760   7.075   7.606  1.00  0.00     0.232 C 
HETATM    6  C   UNL     1      65.354   6.571   7.292  1.00  0.00     0.028 C 
HETATM    7  H   UNL     1      66.666   8.989   6.959  1.00  0.00     0.277 HD
HETATM    8  H   UNL     1      68.197   8.258   6.868  1.00  0.00     0.277 HD
ENDROOT
BRANCH   1   9
HETATM    9  C   UNL     1      64.596   8.626   4.985  1.00  0.00     0.225 C 
HETATM   10  N   UNL     1      63.560   8.679   4.077  1.00  0.00    -0.352 N 
HETATM   11  C   UNL     1      62.680   9.836   4.057  1.00  0.00     0.126 C 
HETATM   12  C   UNL     1      63.222   7.752   3.009  1.00  0.00     0.126 C 
HETATM   13  C   UNL     1      61.511   9.408   3.194  1.00  0.00     0.021 C 
HETATM   14  C   UNL     1      62.170   8.481   2.179  1.00  0.00     0.021 C 
HETATM   15  O   UNL     1      64.744   9.551   5.787  1.00  0.00    -0.273 OA
ENDBRANCH   1   9
TORSDOF 1
ENDMDL
MODEL 2
REMARK VINA RESULT:      -4.3      1.683      2.364
REMARK  1 active torsions:
REMARK  status: ('A' for Active; 'I' for Inactive)
REMARK       I    between atoms: C_1  and  N_2 
REMARK    1  A    between atoms: C_1  and  C_3 
ROOT
HETATM    1  C   UNL     1      64.920   7.520   5.655  1.00  0.00     0.103 C 
HETATM    2  N   UNL     1      66.295   5.406   5.572  1.00  0.00    -0.074 N 
HETATM    3  C   UNL     1      65.167   6.099   6.197  1.00  0.00     0.246 C 
HETATM    4  C   UNL     1      66.226   8.314   5.770  1.00  0.00     0.017 C 
HETATM    5  C   UNL     1      67.540   6.161   5.581  1.00  0.00     0.232 C 
HETATM    6  C   UNL     1      67.377   7.592   5.075  1.00  0.00     0.028 C 
HETATM    7  H   UNL     1      66.051   5.206   4.602  1.00  0.00     0.277 HD
HETATM    8  H   UNL     1      66.461   4.563   6.120  1.00  0.00     0.277 HD
ENDROOT
BRANCH   1   9
HETATM    9  C   UNL     1      64.309   7.476   4.241  1.00  0.00     0.225 C 
HETATM   10  N   UNL     1      63.425   8.466   3.870  1.00  0.00    -0.352 N 
HETATM   11  C   UNL     1      62.772   8.397   2.573  1.00  0.00     0.126 C 
HETATM   12  C   UNL     1      62.937   9.601   4.636  1.00  0.00     0.126 C 
HETATM   13  C   UNL     1      62.156   9.769   2.386  1.00  0.00     0.021 C 
HETATM   14  C   UNL     1      61.783  10.162   3.812  1.00  0.00     0.021 C 
HETATM   15  O   UNL     1      64.555   6.559   3.454  1.00  0.00    -0.273 OA
ENDBRANCH   1   9
TORSDOF 1
ENDMDL
MODEL 3
REMARK VINA RESULT:      -4.1      3.497      5.353
REMARK  1 active torsions:
REMARK  status: ('A' for Active; 'I' for Inactive)
REMARK       I    between atoms: C_1  and  N_2 
REMARK    1  A    between atoms: C_1  and  C_3 
ROOT
HETATM    1  C   UNL     1      62.452   8.382   3.434  1.00  0.00     0.103 C 
HETATM    2  N   UNL     1      61.409  10.094   1.902  1.00  0.00    -0.074 N 
HETATM    3  C   UNL     1      62.239   8.891   1.996  1.00  0.00     0.246 C 
HETATM    4  C   UNL     1      63.004   9.537   4.277  1.00  0.00     0.017 C 
HETATM    5  C   UNL     1      61.847  11.190   2.754  1.00  0.00     0.232 C 
HETATM    6  C   UNL     1      62.100  10.763   4.197  1.00  0.00     0.028 C 
HETATM    7  H   UNL     1      60.455   9.847   2.165  1.00  0.00     0.277 HD
HETATM    8  H   UNL     1      61.480  10.425   0.940  1.00  0.00     0.277 HD
ENDROOT
BRANCH   1   9
HETATM    9  C   UNL     1      61.170   7.729   3.986  1.00  0.00     0.225 C 
HETATM   10  N   UNL     1      61.285   6.783   4.983  1.00  0.00    -0.352 N 
HETATM   11  C   UNL     1      60.098   6.093   5.459  1.00  0.00     0.126 C 
HETATM   12  C   UNL     1      62.480   6.263   5.627  1.00  0.00     0.126 C 
HETATM   13  C   UNL     1      60.546   5.401   6.731  1.00  0.00     0.021 C 
HETATM   14  C   UNL     1      61.999   5.056   6.426  1.00  0.00     0.021 C 
HETATM   15  O   UNL     1      60.055   7.995   3.532  1.00  0.00    -0.273 OA
ENDBRANCH   1   9
TORSDOF 1
ENDMDL
MODEL 4
REMARK VINA RESULT:      -4.1      1.849      5.217
REMARK  1 active torsions:
REMARK  status: ('A' for Active; 'I' for Inactive)
REMARK       I    between atoms: C_1  and  N_2 
REMARK    1  A    between atoms: C_1  and  C_3 
ROOT
HETATM    1  C   UNL     1      63.920   6.464   4.711  1.00  0.00     0.103 C 
HETATM    2  N   UNL     1      61.498   7.165   4.813  1.00  0.00    -0.074 N 
HETATM    3  C   UNL     1      62.436   6.056   4.626  1.00  0.00     0.246 C 
HETATM    4  C   UNL     1      64.164   7.606   3.718  1.00  0.00     0.017 C 
HETATM    5  C   UNL     1      61.746   8.310   3.948  1.00  0.00     0.232 C 
HETATM    6  C   UNL     1      63.203   8.766   3.960  1.00  0.00     0.028 C 
HETATM    7  H   UNL     1      61.560   7.478   5.781  1.00  0.00     0.277 HD
HETATM    8  H   UNL     1      60.573   6.811   4.569  1.00  0.00     0.277 HD
ENDROOT
BRANCH   1   9
HETATM    9  C   UNL     1      64.328   6.768   6.165  1.00  0.00     0.225 C 
HETATM   10  N   UNL     1      65.571   6.362   6.603  1.00  0.00    -0.352 N 
HETATM   11  C   UNL     1      65.943   6.562   7.994  1.00  0.00     0.126 C 
HETATM   12  C   UNL     1      66.612   5.645   5.886  1.00  0.00     0.126 C 
HETATM   13  C   UNL     1      67.437   6.309   8.026  1.00  0.00     0.021 C 
HETATM   14  C   UNL     1      67.614   5.233   6.960  1.00  0.00     0.021 C 
HETATM   15  O   UNL     1      63.560   7.323   6.955  1.00  0.00    -0.273 OA
ENDBRANCH   1   9
TORSDOF 1
ENDMDL
MODEL 5
REMARK VINA RESULT:      -4.1      1.385      5.021
REMARK  1 active torsions:
REMARK  status: ('A' for Active; 'I' for Inactive)
REMARK       I    between atoms: C_1  and  N_2 
REMARK    1  A    between atoms: C_1  and  C_3 
ROOT
HETATM    1  C   UNL     1      63.538   7.513   5.474  1.00  0.00     0.103 C 
HETATM    2  N   UNL     1      62.974   9.474   3.990  1.00  0.00    -0.074 N 
HETATM    3  C   UNL     1      62.777   8.841   5.296  1.00  0.00     0.246 C 
HETATM    4  C   UNL     1      63.163   6.583   4.315  1.00  0.00     0.017 C 
HETATM    5  C   UNL     1      62.711   8.598   2.856  1.00  0.00     0.232 C 
HETATM    6  C   UNL     1      63.416   7.248   2.966  1.00  0.00     0.028 C 
HETATM    7  H   UNL     1      63.940   9.793   3.930  1.00  0.00     0.277 HD
HETATM    8  H   UNL     1      62.300  10.238   3.930  1.00  0.00     0.277 HD
ENDROOT
BRANCH   1   9
HETATM    9  C   UNL     1      65.049   7.759   5.647  1.00  0.00     0.225 C 
HETATM   10  N   UNL     1      65.788   6.857   6.383  1.00  0.00    -0.352 N 
HETATM   11  C   UNL     1      67.197   7.113   6.631  1.00  0.00     0.126 C 
HETATM   12  C   UNL     1      65.352   5.652   7.069  1.00  0.00     0.126 C 
HETATM   13  C   UNL     1      67.734   5.800   7.162  1.00  0.00     0.021 C 
HETATM   14  C   UNL     1      66.542   5.242   7.932  1.00  0.00     0.021 C 
HETATM   15  O   UNL     1      65.604   8.760   5.186  1.00  0.00    -0.273 OA
ENDBRANCH   1   9
TORSDOF 1
ENDMDL
MODEL 6
REMARK VINA RESULT:      -4.0      3.174      3.633
REMARK  1 active torsions:
REMARK  status: ('A' for Active; 'I' for Inactive)
REMARK       I    between atoms: C_1  and  N_2 
REMARK    1  A    between atoms: C_1  and  C_3 
ROOT
HETATM    1  C   UNL     1      63.066   7.874   4.623  1.00  0.00     0.103 C 
HETATM    2  N   UNL     1      65.109   8.904   5.687  1.00  0.00    -0.074 N 
HETATM    3  C   UNL     1      63.858   9.150   4.966  1.00  0.00     0.246 C 
HETATM    4  C   UNL     1      63.995   6.918   3.866  1.00  0.00     0.017 C 
HETATM    5  C   UNL     1      65.987   7.935   5.047  1.00  0.00     0.232 C 
HETATM    6  C   UNL     1      65.271   6.644   4.656  1.00  0.00     0.028 C 
HETATM    7  H   UNL     1      64.879   8.560   6.619  1.00  0.00     0.277 HD
HETATM    8  H   UNL     1      65.616   9.789   5.706  1.00  0.00     0.277 HD
ENDROOT
BRANCH   1   9
HETATM    9  C   UNL     1      62.405   7.278   5.880  1.00  0.00     0.225 C 
HETATM   10  N   UNL     1      61.260   6.524   5.732  1.00  0.00    -0.352 N 
HETATM   11  C   UNL     1      60.571   6.024   6.911  1.00  0.00     0.126 C 
HETATM   12  C   UNL     1      60.526   6.189   4.523  1.00  0.00     0.126 C 
HETATM   13  C   UNL     1      59.590   5.003   6.372  1.00  0.00     0.021 C 
HETATM   14  C   UNL     1      59.213   5.590   5.016  1.00  0.00     0.021 C 
HETATM   15  O   UNL     1      62.844   7.493   7.012  1.00  0.00    -0.273 OA
ENDBRANCH   1   9
TORSDOF 1
ENDMDL
MODEL 7
REMARK VINA RESULT:      -3.9      1.867      5.432
REMARK  1 active torsions:
REMARK  status: ('A' for Active; 'I' for Inactive)
REMARK       I    between atoms: C_1  and  N_2 
REMARK    1  A    between atoms: C_1  and  C_3 
ROOT
HETATM    1  C   UNL     1      62.445   7.143   2.719  1.00  0.00     0.103 C 
HETATM    2  N   UNL     1      60.293   8.411   2.364  1.00  0.00    -0.074 N 
HETATM    3  C   UNL     1      60.925   7.231   2.957  1.00  0.00     0.246 C 
HETATM    4  C   UNL     1      62.704   7.247   1.212  1.00  0.00     0.017 C 
HETATM    5  C   UNL     1      60.583   8.598   0.949  1.00  0.00     0.232 C 
HETATM    6  C   UNL     1      62.072   8.505   0.626  1.00  0.00     0.028 C 
HETATM    7  H   UNL     1      60.617   9.236   2.868  1.00  0.00     0.277 HD
HETATM    8  H   UNL     1      59.285   8.273   2.439  1.00  0.00     0.277 HD
ENDROOT
BRANCH   1   9
HETATM    9  C   UNL     1      63.200   8.172   3.581  1.00  0.00     0.225 C 
HETATM   10  N   UNL     1      64.282   7.748   4.323  1.00  0.00    -0.352 N 
HETATM   11  C   UNL     1      64.957   8.682   5.209  1.00  0.00     0.126 C 
HETATM   12  C   UNL     1      64.853   6.416   4.443  1.00  0.00     0.126 C 
HETATM   13  C   UNL     1      66.246   7.981   5.588  1.00  0.00     0.021 C 
HETATM   14  C   UNL     1      65.832   6.514   5.609  1.00  0.00     0.021 C 
HETATM   15  O   UNL     1      62.838   9.348   3.660  1.00  0.00    -0.273 OA
ENDBRANCH   1   9
TORSDOF 1
ENDMDL
MODEL 8
REMARK VINA RESULT:      -3.9      2.298      2.974
REMARK  1 active torsions:
REMARK  status: ('A' for Active; 'I' for Inactive)
REMARK       I    between atoms: C_1  and  N_2 
REMARK    1  A    between atoms: C_1  and  C_3 
ROOT
HETATM    1  C   UNL     1      63.112   6.913   4.068  1.00  0.00     0.103 C 
HETATM    2  N   UNL     1      63.754   5.800   6.240  1.00  0.00    -0.074 N 
HETATM    3  C   UNL     1      64.184   6.174   4.891  1.00  0.00     0.246 C 
HETATM    4  C   UNL     1      61.839   6.059   4.058  1.00  0.00     0.017 C 
HETATM    5  C   UNL     1      62.501   5.060   6.284  1.00  0.00     0.232 C 
HETATM    6  C   UNL     1      61.387   5.719   5.474  1.00  0.00     0.028 C 
HETATM    7  H   UNL     1      63.641   6.653   6.788  1.00  0.00     0.277 HD
HETATM    8  H   UNL     1      64.472   5.181   6.616  1.00  0.00     0.277 HD
ENDROOT
BRANCH   1   9
HETATM    9  C   UNL     1      62.922   8.355   4.575  1.00  0.00     0.225 C 
HETATM   10  N   UNL     1      62.519   9.324   3.680  1.00  0.00    -0.352 N 
HETATM   11  C   UNL     1      62.416  10.707   4.116  1.00  0.00     0.126 C 
HETATM   12  C   UNL     1      62.239   9.207   2.259  1.00  0.00     0.126 C 
HETATM   13  C   UNL     1      61.656  11.400   3.003  1.00  0.00     0.021 C 
HETATM   14  C   UNL     1      62.123  10.645   1.763  1.00  0.00     0.021 C 
HETATM   15  O   UNL     1      63.163   8.674   5.742  1.00  0.00    -0.273 OA
ENDBRANCH   1   9
TORSDOF 1
ENDMDL
MODEL 9
REMARK VINA RESULT:      -3.9      1.902      2.052
REMARK  1 active torsions:
REMARK  status: ('A' for Active; 'I' for Inactive)
REMARK       I    between atoms: C_1  and  N_2 
REMARK    1  A    between atoms: C_1  and  C_3 
ROOT
HETATM    1  C   UNL     1      66.134   7.206   5.475  1.00  0.00     0.103 C 
HETATM    2  N   UNL     1      67.177   7.074   7.768  1.00  0.00    -0.074 N 
HETATM    3  C   UNL     1      66.845   7.935   6.631  1.00  0.00     0.246 C 
HETATM    4  C   UNL     1      66.990   6.003   5.063  1.00  0.00     0.017 C 
HETATM    5  C   UNL     1      67.918   5.872   7.412  1.00  0.00     0.232 C 
HETATM    6  C   UNL     1      67.287   5.100   6.256  1.00  0.00     0.028 C 
HETATM    7  H   UNL     1      66.308   6.790   8.221  1.00  0.00     0.277 HD
HETATM    8  H   UNL     1      67.783   7.618   8.382  1.00  0.00     0.277 HD
ENDROOT
BRANCH   1   9
HETATM    9  C   UNL     1      64.677   6.870   5.844  1.00  0.00     0.225 C 
HETATM   10  N   UNL     1      63.660   7.387   5.069  1.00  0.00    -0.352 N 
HETATM   11  C   UNL     1      62.277   7.154   5.449  1.00  0.00     0.126 C 
HETATM   12  C   UNL     1      63.739   8.253   3.904  1.00  0.00     0.126 C 
HETATM   13  C   UNL     1      61.474   7.569   4.232  1.00  0.00     0.021 C 
HETATM   14  C   UNL     1      62.305   8.714   3.663  1.00  0.00     0.021 C 
HETATM   15  O   UNL     1      64.395   6.192   6.836  1.00  0.00    -0.273 OA
ENDBRANCH   1   9
TORSDOF 1
ENDMDL
