MODEL 1
REMARK VINA RESULT:      -5.7      0.000      0.000
REMARK  2 active torsions:
REMARK  status: ('A' for Active; 'I' for Inactive)
REMARK    1  A    between atoms: C_1  and  C_6 
REMARK    2  A    between atoms: C_3  and  C_7 
ROOT
HETATM    1  C   UNL     1      65.507   6.484   6.925  1.00  0.00     0.072 A 
HETATM    2  C   UNL     1      64.243   7.022   6.541  1.00  0.00     0.059 A 
HETATM    3  C   UNL     1      64.456   7.839   5.454  1.00  0.00     0.087 A 
HETATM    4  C   UNL     1      66.419   7.015   6.030  1.00  0.00     0.067 A 
HETATM    5  O   UNL     1      65.783   7.824   5.135  1.00  0.00    -0.314 OA
HETATM    6  C   UNL     1      67.885   6.915   5.850  1.00  0.00     0.078 C 
ENDROOT
BRANCH   3   7
HETATM    7  C   UNL     1      63.594   8.704   4.658  1.00  0.00    -0.002 A 
HETATM    8  C   UNL     1      63.180   9.946   5.160  1.00  0.00     0.015 A 
HETATM    9  C   UNL     1      62.434  10.825   4.371  1.00  0.00     0.007 A 
HETATM   10  C   UNL     1      62.079  10.473   3.065  1.00  0.00    -0.062 A 
HETATM   11  C   UNL     1      62.455   9.221   2.573  1.00  0.00     0.007 A 
HETATM   12  C   UNL     1      61.328  11.442   2.204  1.00  0.00     0.048 C 
HETATM   13  C   UNL     1      63.202   8.344   3.363  1.00  0.00     0.015 A 
ENDBRANCH   3   7
BRANCH   1  14
HETATM   14  C   UNL     1      65.778   5.592   8.025  1.00  0.00     0.212 C 
HETATM   15  O   UNL     1      65.599   4.382   8.041  1.00  0.00    -0.644 OA
HETATM   16  O   UNL     1      66.279   6.215   9.117  1.00  0.00    -0.644 OA
ENDBRANCH   1  14
TORSDOF 2
ENDMDL
MODEL 2
REMARK VINA RESULT:      -5.5      1.252      1.430
REMARK  2 active torsions:
REMARK  status: ('A' for Active; 'I' for Inactive)
REMARK    1  A    between atoms: C_1  and  C_6 
REMARK    2  A    between atoms: C_3  and  C_7 
ROOT
HETATM    1  C   UNL     1      65.094   5.591   6.762  1.00  0.00     0.072 A 
HETATM    2  C   UNL     1      64.148   5.979   5.768  1.00  0.00     0.059 A 
HETATM    3  C   UNL     1      64.232   7.346   5.631  1.00  0.00     0.087 A 
HETATM    4  C   UNL     1      65.704   6.765   7.167  1.00  0.00     0.067 A 
HETATM    5  O   UNL     1      65.191   7.823   6.476  1.00  0.00    -0.314 OA
HETATM    6  C   UNL     1      66.741   7.114   8.164  1.00  0.00     0.078 C 
ENDROOT
BRANCH   3   7
HETATM    7  C   UNL     1      63.500   8.326   4.838  1.00  0.00    -0.002 A 
HETATM    8  C   UNL     1      63.160   9.570   5.388  1.00  0.00     0.015 A 
HETATM    9  C   UNL     1      62.545  10.554   4.609  1.00  0.00     0.007 A 
HETATM   10  C   UNL     1      62.248  10.307   3.266  1.00  0.00    -0.062 A 
HETATM   11  C   UNL     1      62.549   9.056   2.723  1.00  0.00     0.007 A 
HETATM   12  C   UNL     1      61.641  11.385   2.421  1.00  0.00     0.048 C 
HETATM   13  C   UNL     1      63.165   8.074   3.502  1.00  0.00     0.015 A 
ENDBRANCH   3   7
BRANCH   1  14
HETATM   14  C   UNL     1      65.347   4.259   7.253  1.00  0.00     0.212 C 
HETATM   15  O   UNL     1      66.442   3.762   7.476  1.00  0.00    -0.644 OA
HETATM   16  O   UNL     1      64.222   3.539   7.471  1.00  0.00    -0.644 OA
ENDBRANCH   1  14
TORSDOF 2
ENDMDL
MODEL 3
REMARK VINA RESULT:      -5.3      2.339      6.376
REMARK  2 active torsions:
REMARK  status: ('A' for Active; 'I' for Inactive)
REMARK    1  A    between atoms: C_1  and  C_6 
REMARK    2  A    between atoms: C_3  and  C_7 
ROOT
HETATM    1  C   UNL     1      62.677   9.194   3.606  1.00  0.00     0.072 A 
HETATM    2  C   UNL     1      63.481   8.041   3.848  1.00  0.00     0.059 A 
HETATM    3  C   UNL     1      64.156   8.251   5.030  1.00  0.00     0.087 A 
HETATM    4  C   UNL     1      62.916  10.040   4.675  1.00  0.00     0.067 A 
HETATM    5  O   UNL     1      63.801   9.465   5.540  1.00  0.00    -0.314 OA
HETATM    6  C   UNL     1      62.454  11.392   5.062  1.00  0.00     0.078 C 
ENDROOT
BRANCH   3   7
HETATM    7  C   UNL     1      65.155   7.488   5.769  1.00  0.00    -0.002 A 
HETATM    8  C   UNL     1      64.759   6.516   6.698  1.00  0.00     0.015 A 
HETATM    9  C   UNL     1      65.705   5.713   7.340  1.00  0.00     0.007 A 
HETATM   10  C   UNL     1      67.068   5.875   7.072  1.00  0.00    -0.062 A 
HETATM   11  C   UNL     1      67.470   6.868   6.177  1.00  0.00     0.007 A 
HETATM   12  C   UNL     1      68.073   4.973   7.722  1.00  0.00     0.048 C 
HETATM   13  C   UNL     1      66.524   7.669   5.534  1.00  0.00     0.015 A 
ENDBRANCH   3   7
BRANCH   1  14
HETATM   14  C   UNL     1      61.814   9.435   2.477  1.00  0.00     0.212 C 
HETATM   15  O   UNL     1      60.919   8.703   2.077  1.00  0.00    -0.644 OA
HETATM   16  O   UNL     1      62.068  10.601   1.839  1.00  0.00    -0.644 OA
ENDBRANCH   1  14
TORSDOF 2
ENDMDL
MODEL 4
REMARK VINA RESULT:      -5.3      2.414      6.451
REMARK  2 active torsions:
REMARK  status: ('A' for Active; 'I' for Inactive)
REMARK    1  A    between atoms: C_1  and  C_6 
REMARK    2  A    between atoms: C_3  and  C_7 
ROOT
HETATM    1  C   UNL     1      62.565   9.288   4.154  1.00  0.00     0.072 A 
HETATM    2  C   UNL     1      63.802   9.150   4.851  1.00  0.00     0.059 A 
HETATM    3  C   UNL     1      63.888   7.845   5.281  1.00  0.00     0.087 A 
HETATM    4  C   UNL     1      61.973   8.038   4.205  1.00  0.00     0.067 A 
HETATM    5  O   UNL     1      62.777   7.164   4.876  1.00  0.00    -0.314 OA
HETATM    6  C   UNL     1      60.696   7.467   3.723  1.00  0.00     0.078 C 
ENDROOT
BRANCH   3   7
HETATM    7  C   UNL     1      64.859   7.110   6.084  1.00  0.00    -0.002 A 
HETATM    8  C   UNL     1      66.080   7.702   6.436  1.00  0.00     0.015 A 
HETATM    9  C   UNL     1      66.976   7.046   7.284  1.00  0.00     0.007 A 
HETATM   10  C   UNL     1      66.671   5.779   7.788  1.00  0.00    -0.062 A 
HETATM   11  C   UNL     1      65.474   5.167   7.410  1.00  0.00     0.007 A 
HETATM   12  C   UNL     1      67.610   5.105   8.742  1.00  0.00     0.048 C 
HETATM   13  C   UNL     1      64.579   5.825   6.563  1.00  0.00     0.015 A 
ENDBRANCH   3   7
BRANCH   1  14
HETATM   14  C   UNL     1      62.036  10.482   3.544  1.00  0.00     0.212 C 
HETATM   15  O   UNL     1      61.684  11.500   4.124  1.00  0.00    -0.644 OA
HETATM   16  O   UNL     1      61.946  10.408   2.196  1.00  0.00    -0.644 OA
ENDBRANCH   1  14
TORSDOF 2
ENDMDL
MODEL 5
REMARK VINA RESULT:      -5.3      2.294      6.395
REMARK  2 active torsions:
REMARK  status: ('A' for Active; 'I' for Inactive)
REMARK    1  A    between atoms: C_1  and  C_6 
REMARK    2  A    between atoms: C_3  and  C_7 
ROOT
HETATM    1  C   UNL     1      62.830   9.327   3.911  1.00  0.00     0.072 A 
HETATM    2  C   UNL     1      63.547   8.098   4.018  1.00  0.00     0.059 A 
HETATM    3  C   UNL     1      64.269   8.144   5.188  1.00  0.00     0.087 A 
HETATM    4  C   UNL     1      63.166  10.048   5.043  1.00  0.00     0.067 A 
HETATM    5  O   UNL     1      64.027   9.329   5.819  1.00  0.00    -0.314 OA
HETATM    6  C   UNL     1      62.823  11.389   5.568  1.00  0.00     0.078 C 
ENDROOT
BRANCH   3   7
HETATM    7  C   UNL     1      65.226   7.242   5.818  1.00  0.00    -0.002 A 
HETATM    8  C   UNL     1      66.602   7.497   5.731  1.00  0.00     0.015 A 
HETATM    9  C   UNL     1      67.523   6.695   6.410  1.00  0.00     0.007 A 
HETATM   10  C   UNL     1      67.085   5.616   7.183  1.00  0.00    -0.062 A 
HETATM   11  C   UNL     1      65.718   5.334   7.242  1.00  0.00     0.007 A 
HETATM   12  C   UNL     1      68.072   4.795   7.955  1.00  0.00     0.048 C 
HETATM   13  C   UNL     1      64.799   6.137   6.564  1.00  0.00     0.015 A 
ENDBRANCH   3   7
BRANCH   1  14
HETATM   14  C   UNL     1      61.955   9.737   2.840  1.00  0.00     0.212 C 
HETATM   15  O   UNL     1      61.911  10.843   2.321  1.00  0.00    -0.644 OA
HETATM   16  O   UNL     1      61.128   8.756   2.411  1.00  0.00    -0.644 OA
ENDBRANCH   1  14
TORSDOF 2
ENDMDL
MODEL 6
REMARK VINA RESULT:      -5.1      3.627      5.243
REMARK  2 active torsions:
REMARK  status: ('A' for Active; 'I' for Inactive)
REMARK    1  A    between atoms: C_1  and  C_6 
REMARK    2  A    between atoms: C_3  and  C_7 
ROOT
HETATM    1  C   UNL     1      63.092   8.796   4.384  1.00  0.00     0.072 A 
HETATM    2  C   UNL     1      62.285   7.776   3.799  1.00  0.00     0.059 A 
HETATM    3  C   UNL     1      61.072   8.344   3.482  1.00  0.00     0.087 A 
HETATM    4  C   UNL     1      62.306   9.935   4.380  1.00  0.00     0.067 A 
HETATM    5  O   UNL     1      61.090   9.664   3.825  1.00  0.00    -0.314 OA
HETATM    6  C   UNL     1      62.483  11.328   4.847  1.00  0.00     0.078 C 
ENDROOT
BRANCH   3   7
HETATM    7  C   UNL     1      59.828   7.821   2.928  1.00  0.00    -0.002 A 
HETATM    8  C   UNL     1      58.761   7.488   3.774  1.00  0.00     0.015 A 
HETATM    9  C   UNL     1      57.533   7.078   3.249  1.00  0.00     0.007 A 
HETATM   10  C   UNL     1      57.351   6.984   1.866  1.00  0.00    -0.062 A 
HETATM   11  C   UNL     1      58.423   7.278   1.020  1.00  0.00     0.007 A 
HETATM   12  C   UNL     1      56.015   6.599   1.309  1.00  0.00     0.048 C 
HETATM   13  C   UNL     1      59.650   7.688   1.545  1.00  0.00     0.015 A 
ENDBRANCH   3   7
BRANCH   1  14
HETATM   14  C   UNL     1      64.436   8.662   4.890  1.00  0.00     0.212 C 
HETATM   15  O   UNL     1      65.001   9.422   5.664  1.00  0.00    -0.644 OA
HETATM   16  O   UNL     1      65.083   7.567   4.427  1.00  0.00    -0.644 OA
ENDBRANCH   1  14
TORSDOF 2
ENDMDL
MODEL 7
REMARK VINA RESULT:      -5.1      2.063      2.897
REMARK  2 active torsions:
REMARK  status: ('A' for Active; 'I' for Inactive)
REMARK    1  A    between atoms: C_1  and  C_6 
REMARK    2  A    between atoms: C_3  and  C_7 
ROOT
HETATM    1  C   UNL     1      65.500   7.681   5.394  1.00  0.00     0.072 A 
HETATM    2  C   UNL     1      64.188   8.180   5.142  1.00  0.00     0.059 A 
HETATM    3  C   UNL     1      63.774   7.657   3.938  1.00  0.00     0.087 A 
HETATM    4  C   UNL     1      65.800   6.871   4.313  1.00  0.00     0.067 A 
HETATM    5  O   UNL     1      64.753   6.849   3.439  1.00  0.00    -0.314 OA
HETATM    6  C   UNL     1      66.973   6.068   3.902  1.00  0.00     0.078 C 
ENDROOT
BRANCH   3   7
HETATM    7  C   UNL     1      62.579   7.833   3.121  1.00  0.00    -0.002 A 
HETATM    8  C   UNL     1      62.570   8.763   2.072  1.00  0.00     0.015 A 
HETATM    9  C   UNL     1      61.466   8.872   1.221  1.00  0.00     0.007 A 
HETATM   10  C   UNL     1      60.346   8.058   1.411  1.00  0.00    -0.062 A 
HETATM   11  C   UNL     1      60.334   7.157   2.478  1.00  0.00     0.007 A 
HETATM   12  C   UNL     1      59.189   8.140   0.462  1.00  0.00     0.048 C 
HETATM   13  C   UNL     1      61.438   7.049   3.327  1.00  0.00     0.015 A 
ENDBRANCH   3   7
BRANCH   1  14
HETATM   14  C   UNL     1      66.342   7.973   6.527  1.00  0.00     0.212 C 
HETATM   15  O   UNL     1      66.728   9.079   6.880  1.00  0.00    -0.644 OA
HETATM   16  O   UNL     1      66.707   6.875   7.230  1.00  0.00    -0.644 OA
ENDBRANCH   1  14
TORSDOF 2
ENDMDL
MODEL 8
REMARK VINA RESULT:      -4.5     11.695     13.811
REMARK  2 active torsions:
REMARK  status: ('A' for Active; 'I' for Inactive)
REMARK    1  A    between atoms: C_1  and  C_6 
REMARK    2  A    between atoms: C_3  and  C_7 
ROOT
HETATM    1  C   UNL     1      53.689   4.037  13.296  1.00  0.00     0.072 A 
HETATM    2  C   UNL     1      54.914   3.613  13.890  1.00  0.00     0.059 A 
HETATM    3  C   UNL     1      55.677   3.042  12.896  1.00  0.00     0.087 A 
HETATM    4  C   UNL     1      53.791   3.695  11.959  1.00  0.00     0.067 A 
HETATM    5  O   UNL     1      54.995   3.103  11.716  1.00  0.00    -0.314 OA
HETATM    6  C   UNL     1      52.902   3.808  10.780  1.00  0.00     0.078 C 
ENDROOT
BRANCH   3   7
HETATM    7  C   UNL     1      56.975   2.378  12.878  1.00  0.00    -0.002 A 
HETATM    8  C   UNL     1      57.401   1.625  13.981  1.00  0.00     0.015 A 
HETATM    9  C   UNL     1      58.598   0.906  13.938  1.00  0.00     0.007 A 
HETATM   10  C   UNL     1      59.398   0.935  12.792  1.00  0.00    -0.062 A 
HETATM   11  C   UNL     1      58.998   1.714  11.705  1.00  0.00     0.007 A 
HETATM   12  C   UNL     1      60.652   0.117  12.731  1.00  0.00     0.048 C 
HETATM   13  C   UNL     1      57.800   2.431  11.748  1.00  0.00     0.015 A 
ENDBRANCH   3   7
BRANCH   1  14
HETATM   14  C   UNL     1      52.573   4.672  13.953  1.00  0.00     0.212 C 
HETATM   15  O   UNL     1      51.640   4.109  14.507  1.00  0.00    -0.644 OA
HETATM   16  O   UNL     1      52.624   6.024  13.922  1.00  0.00    -0.644 OA
ENDBRANCH   1  14
TORSDOF 2
ENDMDL
MODEL 9
REMARK VINA RESULT:      -4.4      4.828      6.487
REMARK  2 active torsions:
REMARK  status: ('A' for Active; 'I' for Inactive)
REMARK    1  A    between atoms: C_1  and  C_6 
REMARK    2  A    between atoms: C_3  and  C_7 
ROOT
HETATM    1  C   UNL     1      62.074   8.027   3.292  1.00  0.00     0.072 A 
HETATM    2  C   UNL     1      60.955   7.434   3.949  1.00  0.00     0.059 A 
HETATM    3  C   UNL     1      59.869   7.572   3.115  1.00  0.00     0.087 A 
HETATM    4  C   UNL     1      61.587   8.490   2.082  1.00  0.00     0.067 A 
HETATM    5  O   UNL     1      60.258   8.205   1.971  1.00  0.00    -0.314 OA
HETATM    6  C   UNL     1      62.168   9.217   0.931  1.00  0.00     0.078 C 
ENDROOT
BRANCH   3   7
HETATM    7  C   UNL     1      58.455   7.235   3.238  1.00  0.00    -0.002 A 
HETATM    8  C   UNL     1      57.655   7.111   2.094  1.00  0.00     0.015 A 
HETATM    9  C   UNL     1      56.325   6.694   2.192  1.00  0.00     0.007 A 
HETATM   10  C   UNL     1      55.766   6.403   3.440  1.00  0.00    -0.062 A 
HETATM   11  C   UNL     1      56.547   6.562   4.587  1.00  0.00     0.007 A 
HETATM   12  C   UNL     1      54.357   5.903   3.534  1.00  0.00     0.048 C 
HETATM   13  C   UNL     1      57.877   6.977   4.487  1.00  0.00     0.015 A 
ENDBRANCH   3   7
BRANCH   1  14
HETATM   14  C   UNL     1      63.422   8.137   3.792  1.00  0.00     0.212 C 
HETATM   15  O   UNL     1      63.854   9.010   4.532  1.00  0.00    -0.644 OA
HETATM   16  O   UNL     1      64.240   7.147   3.366  1.00  0.00    -0.644 OA
ENDBRANCH   1  14
TORSDOF 2
ENDMDL
