MODEL 1
REMARK VINA RESULT:      -4.8      0.000      0.000
REMARK  1 active torsions:
REMARK  status: ('A' for Active; 'I' for Inactive)
REMARK       I    between atoms: C_1  and  N_2 
REMARK    1  A    between atoms: C_1  and  C_3 
ROOT
HETATM    1  C   UNL     1      64.589   8.024   5.398  1.00  0.00     0.277 C 
HETATM    2  N   UNL     1      65.677   8.571   6.226  1.00  0.00    -0.062 N 
HETATM    3  C   UNL     1      66.561   7.511   6.743  1.00  0.00     0.233 C 
HETATM    4  C   UNL     1      63.765   7.003   6.207  1.00  0.00     0.043 C 
HETATM    5  C   UNL     1      65.765   6.526   7.606  1.00  0.00     0.027 C 
HETATM    6  C   UNL     1      64.652   5.900   6.767  1.00  0.00     0.004 C 
HETATM    7  H   UNL     1      65.270   9.073   7.015  1.00  0.00     0.278 HD
HETATM    8  H   UNL     1      66.237   9.192   5.642  1.00  0.00     0.278 HD
ENDROOT
BRANCH   1   9
HETATM    9  C   UNL     1      63.595   9.058   4.881  1.00  0.00     0.250 C 
HETATM   10  N   UNL     1      62.961   9.016   3.666  1.00  0.00    -0.350 N 
HETATM   11  C   UNL     1      62.112  10.094   3.214  1.00  0.00     0.126 C 
HETATM   12  C   UNL     1      63.055   7.969   2.666  1.00  0.00     0.126 C 
HETATM   13  C   UNL     1      61.322   9.464   2.076  1.00  0.00     0.021 C 
HETATM   14  C   UNL     1      62.371   8.582   1.440  1.00  0.00     0.021 C 
HETATM   15  O   UNL     1      63.425  10.040   5.591  1.00  0.00    -0.271 OA
ENDBRANCH   1   9
TORSDOF 1
ENDMDL
MODEL 2
REMARK VINA RESULT:      -4.7      1.351      5.191
REMARK  1 active torsions:
REMARK  status: ('A' for Active; 'I' for Inactive)
REMARK       I    between atoms: C_1  and  N_2 
REMARK    1  A    between atoms: C_1  and  C_3 
ROOT
HETATM    1  C   UNL     1      63.762   8.802   4.721  1.00  0.00     0.277 C 
HETATM    2  N   UNL     1      62.957   8.117   3.697  1.00  0.00    -0.062 N 
HETATM    3  C   UNL     1      62.465   9.051   2.668  1.00  0.00     0.233 C 
HETATM    4  C   UNL     1      62.940   9.924   5.384  1.00  0.00     0.043 C 
HETATM    5  C   UNL     1      61.589  10.134   3.305  1.00  0.00     0.027 C 
HETATM    6  C   UNL     1      62.405  10.901   4.345  1.00  0.00     0.004 C 
HETATM    7  H   UNL     1      62.156   7.674   4.148  1.00  0.00     0.278 HD
HETATM    8  H   UNL     1      63.550   7.425   3.238  1.00  0.00     0.278 HD
ENDROOT
BRANCH   1   9
HETATM    9  C   UNL     1      64.252   7.908   5.856  1.00  0.00     0.250 C 
HETATM   10  N   UNL     1      65.513   7.383   5.970  1.00  0.00    -0.350 N 
HETATM   11  C   UNL     1      65.860   6.460   7.025  1.00  0.00     0.126 C 
HETATM   12  C   UNL     1      66.639   7.614   5.085  1.00  0.00     0.126 C 
HETATM   13  C   UNL     1      67.381   6.477   7.020  1.00  0.00     0.021 C 
HETATM   14  C   UNL     1      67.671   6.576   5.540  1.00  0.00     0.021 C 
HETATM   15  O   UNL     1      63.409   7.579   6.680  1.00  0.00    -0.271 OA
ENDBRANCH   1   9
TORSDOF 1
ENDMDL
MODEL 3
REMARK VINA RESULT:      -4.6      1.792      5.387
REMARK  1 active torsions:
REMARK  status: ('A' for Active; 'I' for Inactive)
REMARK       I    between atoms: C_1  and  N_2 
REMARK    1  A    between atoms: C_1  and  C_3 
ROOT
HETATM    1  C   UNL     1      64.451   8.155   5.347  1.00  0.00     0.277 C 
HETATM    2  N   UNL     1      64.225   9.600   5.514  1.00  0.00    -0.062 N 
HETATM    3  C   UNL     1      62.831   9.977   5.217  1.00  0.00     0.233 C 
HETATM    4  C   UNL     1      64.086   7.720   3.914  1.00  0.00     0.043 C 
HETATM    5  C   UNL     1      62.476   9.612   3.772  1.00  0.00     0.027 C 
HETATM    6  C   UNL     1      62.654   8.108   3.570  1.00  0.00     0.004 C 
HETATM    7  H   UNL     1      64.844  10.107   4.881  1.00  0.00     0.278 HD
HETATM    8  H   UNL     1      64.416   9.840   6.487  1.00  0.00     0.278 HD
ENDROOT
BRANCH   1   9
HETATM    9  C   UNL     1      65.888   7.700   5.575  1.00  0.00     0.250 C 
HETATM   10  N   UNL     1      66.278   6.664   6.383  1.00  0.00    -0.350 N 
HETATM   11  C   UNL     1      67.671   6.368   6.622  1.00  0.00     0.126 C 
HETATM   12  C   UNL     1      65.416   5.764   7.127  1.00  0.00     0.126 C 
HETATM   13  C   UNL     1      67.637   4.958   7.193  1.00  0.00     0.021 C 
HETATM   14  C   UNL     1      66.389   5.012   8.042  1.00  0.00     0.021 C 
HETATM   15  O   UNL     1      66.756   8.381   5.045  1.00  0.00    -0.271 OA
ENDBRANCH   1   9
TORSDOF 1
ENDMDL
MODEL 4
REMARK VINA RESULT:      -4.6      1.776      2.497
REMARK  1 active torsions:
REMARK  status: ('A' for Active; 'I' for Inactive)
REMARK       I    between atoms: C_1  and  N_2 
REMARK    1  A    between atoms: C_1  and  C_3 
ROOT
HETATM    1  C   UNL     1      65.342   7.827   5.707  1.00  0.00     0.277 C 
HETATM    2  N   UNL     1      65.040   7.045   6.917  1.00  0.00    -0.062 N 
HETATM    3  C   UNL     1      66.237   6.847   7.755  1.00  0.00     0.233 C 
HETATM    4  C   UNL     1      66.447   7.136   4.885  1.00  0.00     0.043 C 
HETATM    5  C   UNL     1      67.320   6.099   6.972  1.00  0.00     0.027 C 
HETATM    6  C   UNL     1      67.694   6.904   5.728  1.00  0.00     0.004 C 
HETATM    7  H   UNL     1      64.679   6.132   6.639  1.00  0.00     0.278 HD
HETATM    8  H   UNL     1      64.353   7.562   7.465  1.00  0.00     0.278 HD
ENDROOT
BRANCH   1   9
HETATM    9  C   UNL     1      64.164   8.018   4.756  1.00  0.00     0.250 C 
HETATM   10  N   UNL     1      63.424   9.163   4.624  1.00  0.00    -0.350 N 
HETATM   11  C   UNL     1      62.258   9.221   3.773  1.00  0.00     0.126 C 
HETATM   12  C   UNL     1      63.641  10.428   5.302  1.00  0.00     0.126 C 
HETATM   13  C   UNL     1      62.021  10.715   3.604  1.00  0.00     0.021 C 
HETATM   14  C   UNL     1      62.374  11.228   4.980  1.00  0.00     0.021 C 
HETATM   15  O   UNL     1      63.817   7.026   4.128  1.00  0.00    -0.271 OA
ENDBRANCH   1   9
TORSDOF 1
ENDMDL
MODEL 5
REMARK VINA RESULT:      -4.5      1.720      4.951
REMARK  1 active torsions:
REMARK  status: ('A' for Active; 'I' for Inactive)
REMARK       I    between atoms: C_1  and  N_2 
REMARK    1  A    between atoms: C_1  and  C_3 
ROOT
HETATM    1  C   UNL     1      63.531   8.248   4.018  1.00  0.00     0.277 C 
HETATM    2  N   UNL     1      62.657   7.152   4.465  1.00  0.00    -0.062 N 
HETATM    3  C   UNL     1      61.508   6.961   3.561  1.00  0.00     0.233 C 
HETATM    4  C   UNL     1      62.729   9.560   3.908  1.00  0.00     0.043 C 
HETATM    5  C   UNL     1      60.663   8.237   3.496  1.00  0.00     0.027 C 
HETATM    6  C   UNL     1      61.525   9.392   2.990  1.00  0.00     0.004 C 
HETATM    7  H   UNL     1      62.307   7.367   5.399  1.00  0.00     0.278 HD
HETATM    8  H   UNL     1      63.204   6.291   4.466  1.00  0.00     0.278 HD
ENDROOT
BRANCH   1   9
HETATM    9  C   UNL     1      64.708   8.547   4.941  1.00  0.00     0.250 C 
HETATM   10  N   UNL     1      65.847   7.794   5.051  1.00  0.00    -0.350 N 
HETATM   11  C   UNL     1      66.867   8.094   6.029  1.00  0.00     0.126 C 
HETATM   12  C   UNL     1      66.191   6.612   4.282  1.00  0.00     0.126 C 
HETATM   13  C   UNL     1      68.073   7.312   5.529  1.00  0.00     0.021 C 
HETATM   14  C   UNL     1      67.417   6.053   5.013  1.00  0.00     0.021 C 
HETATM   15  O   UNL     1      64.567   9.500   5.698  1.00  0.00    -0.271 OA
ENDBRANCH   1   9
TORSDOF 1
ENDMDL
MODEL 6
REMARK VINA RESULT:      -4.2      1.414      4.917
REMARK  1 active torsions:
REMARK  status: ('A' for Active; 'I' for Inactive)
REMARK       I    between atoms: C_1  and  N_2 
REMARK    1  A    between atoms: C_1  and  C_3 
ROOT
HETATM    1  C   UNL     1      62.272   8.501   4.824  1.00  0.00     0.277 C 
HETATM    2  N   UNL     1      62.680   9.904   4.644  1.00  0.00    -0.062 N 
HETATM    3  C   UNL     1      61.911  10.567   3.576  1.00  0.00     0.233 C 
HETATM    4  C   UNL     1      62.434   7.724   3.503  1.00  0.00     0.043 C 
HETATM    5  C   UNL     1      62.118   9.845   2.241  1.00  0.00     0.027 C 
HETATM    6  C   UNL     1      61.662   8.393   2.374  1.00  0.00     0.004 C 
HETATM    7  H   UNL     1      63.671   9.931   4.401  1.00  0.00     0.278 HD
HETATM    8  H   UNL     1      62.501  10.400   5.517  1.00  0.00     0.278 HD
ENDROOT
BRANCH   1   9
HETATM    9  C   UNL     1      63.070   7.730   5.870  1.00  0.00     0.250 C 
HETATM   10  N   UNL     1      64.435   7.604   5.899  1.00  0.00    -0.350 N 
HETATM   11  C   UNL     1      65.101   6.767   6.869  1.00  0.00     0.126 C 
HETATM   12  C   UNL     1      65.388   8.219   4.994  1.00  0.00     0.126 C 
HETATM   13  C   UNL     1      66.545   7.243   6.810  1.00  0.00     0.021 C 
HETATM   14  C   UNL     1      66.708   7.516   5.333  1.00  0.00     0.021 C 
HETATM   15  O   UNL     1      62.413   7.111   6.697  1.00  0.00    -0.271 OA
ENDBRANCH   1   9
TORSDOF 1
ENDMDL
MODEL 7
REMARK VINA RESULT:      -4.2      2.151      5.634
REMARK  1 active torsions:
REMARK  status: ('A' for Active; 'I' for Inactive)
REMARK       I    between atoms: C_1  and  N_2 
REMARK    1  A    between atoms: C_1  and  C_3 
ROOT
HETATM    1  C   UNL     1      60.879   8.107   2.836  1.00  0.00     0.277 C 
HETATM    2  N   UNL     1      59.465   8.125   3.247  1.00  0.00    -0.062 N 
HETATM    3  C   UNL     1      58.622   7.315   2.349  1.00  0.00     0.233 C 
HETATM    4  C   UNL     1      61.020   8.615   1.388  1.00  0.00     0.043 C 
HETATM    5  C   UNL     1      58.699   7.852   0.917  1.00  0.00     0.027 C 
HETATM    6  C   UNL     1      60.148   7.807   0.435  1.00  0.00     0.004 C 
HETATM    7  H   UNL     1      59.129   9.088   3.234  1.00  0.00     0.278 HD
HETATM    8  H   UNL     1      59.403   7.725   4.184  1.00  0.00     0.278 HD
ENDROOT
BRANCH   1   9
HETATM    9  C   UNL     1      61.803   8.976   3.682  1.00  0.00     0.250 C 
HETATM   10  N   UNL     1      62.958   8.557   4.289  1.00  0.00    -0.350 N 
HETATM   11  C   UNL     1      63.719   9.423   5.159  1.00  0.00     0.126 C 
HETATM   12  C   UNL     1      63.562   7.240   4.203  1.00  0.00     0.126 C 
HETATM   13  C   UNL     1      65.069   8.727   5.254  1.00  0.00     0.021 C 
HETATM   14  C   UNL     1      64.653   7.275   5.279  1.00  0.00     0.021 C 
HETATM   15  O   UNL     1      61.421  10.120   3.891  1.00  0.00    -0.271 OA
ENDBRANCH   1   9
TORSDOF 1
ENDMDL
MODEL 8
REMARK VINA RESULT:      -4.1      2.070      5.180
REMARK  1 active torsions:
REMARK  status: ('A' for Active; 'I' for Inactive)
REMARK       I    between atoms: C_1  and  N_2 
REMARK    1  A    between atoms: C_1  and  C_3 
ROOT
HETATM    1  C   UNL     1      62.213   8.869   3.851  1.00  0.00     0.277 C 
HETATM    2  N   UNL     1      62.546  10.260   4.197  1.00  0.00    -0.062 N 
HETATM    3  C   UNL     1      61.753  11.226   3.414  1.00  0.00     0.233 C 
HETATM    4  C   UNL     1      62.432   8.626   2.345  1.00  0.00     0.043 C 
HETATM    5  C   UNL     1      62.014  11.040   1.916  1.00  0.00     0.027 C 
HETATM    6  C   UNL     1      61.637   9.618   1.507  1.00  0.00     0.004 C 
HETATM    7  H   UNL     1      63.536  10.420   4.009  1.00  0.00     0.278 HD
HETATM    8  H   UNL     1      62.330  10.401   5.184  1.00  0.00     0.278 HD
ENDROOT
BRANCH   1   9
HETATM    9  C   UNL     1      63.041   7.812   4.575  1.00  0.00     0.250 C 
HETATM   10  N   UNL     1      62.537   6.776   5.318  1.00  0.00    -0.350 N 
HETATM   11  C   UNL     1      63.398   5.882   6.057  1.00  0.00     0.126 C 
HETATM   12  C   UNL     1      61.140   6.440   5.516  1.00  0.00     0.126 C 
HETATM   13  C   UNL     1      62.493   4.697   6.362  1.00  0.00     0.021 C 
HETATM   14  C   UNL     1      61.178   5.389   6.631  1.00  0.00     0.021 C 
HETATM   15  O   UNL     1      64.254   7.968   4.544  1.00  0.00    -0.271 OA
ENDBRANCH   1   9
TORSDOF 1
ENDMDL
MODEL 9
REMARK VINA RESULT:      -3.8      2.566      3.386
REMARK  1 active torsions:
REMARK  status: ('A' for Active; 'I' for Inactive)
REMARK       I    between atoms: C_1  and  N_2 
REMARK    1  A    between atoms: C_1  and  C_3 
ROOT
HETATM    1  C   UNL     1      62.015   6.331   5.354  1.00  0.00     0.277 C 
HETATM    2  N   UNL     1      63.048   5.376   4.920  1.00  0.00    -0.062 N 
HETATM    3  C   UNL     1      62.489   4.033   4.679  1.00  0.00     0.233 C 
HETATM    4  C   UNL     1      61.317   5.819   6.629  1.00  0.00     0.043 C 
HETATM    5  C   UNL     1      61.851   3.484   5.959  1.00  0.00     0.027 C 
HETATM    6  C   UNL     1      60.740   4.426   6.418  1.00  0.00     0.004 C 
HETATM    7  H   UNL     1      63.762   5.309   5.645  1.00  0.00     0.278 HD
HETATM    8  H   UNL     1      63.444   5.715   4.043  1.00  0.00     0.278 HD
ENDROOT
BRANCH   1   9
HETATM    9  C   UNL     1      62.531   7.727   5.685  1.00  0.00     0.250 C 
HETATM   10  N   UNL     1      62.369   8.843   4.905  1.00  0.00    -0.350 N 
HETATM   11  C   UNL     1      62.983  10.106   5.247  1.00  0.00     0.126 C 
HETATM   12  C   UNL     1      61.634   8.938   3.658  1.00  0.00     0.126 C 
HETATM   13  C   UNL     1      62.223  11.107   4.389  1.00  0.00     0.021 C 
HETATM   14  C   UNL     1      62.024  10.318   3.117  1.00  0.00     0.021 C 
HETATM   15  O   UNL     1      63.215   7.820   6.696  1.00  0.00    -0.271 OA
ENDBRANCH   1   9
TORSDOF 1
ENDMDL
