MODEL 1
REMARK VINA RESULT:      -5.1      0.000      0.000
REMARK  1 active torsions:
REMARK  status: ('A' for Active; 'I' for Inactive)
REMARK       I    between atoms: C_1  and  N_2 
REMARK    1  A    between atoms: C_1  and  C_3 
ROOT
HETATM    1  C   UNL     1      64.101   7.229   3.891  1.00  0.00     0.250 C 
HETATM    2  N   UNL     1      63.059   8.095   3.606  1.00  0.00    -0.350 N 
HETATM    3  O   UNL     1      64.508   6.475   3.020  1.00  0.00    -0.271 OA
HETATM    4  C   UNL     1      62.403   8.068   2.293  1.00  0.00     0.126 C 
HETATM    5  C   UNL     1      62.514   9.062   4.565  1.00  0.00     0.126 C 
HETATM    6  C   UNL     1      62.512  10.471   3.955  1.00  0.00     0.024 C 
HETATM    7  C   UNL     1      62.399   9.468   1.666  1.00  0.00     0.024 C 
HETATM    8  C   UNL     1      61.726  10.460   2.633  1.00  0.00    -0.015 C 
HETATM    9  C   UNL     1      61.641  11.861   2.022  1.00  0.00     0.010 C 
ENDROOT
BRANCH   1  10
HETATM   10  C   UNL     1      64.772   7.107   5.253  1.00  0.00     0.277 C 
HETATM   11  N   UNL     1      65.051   5.695   5.579  1.00  0.00    -0.062 N 
HETATM   12  C   UNL     1      65.687   5.553   6.897  1.00  0.00     0.233 C 
HETATM   13  H   UNL     1      65.673   5.309   4.869  1.00  0.00     0.278 HD
HETATM   14  H   UNL     1      64.163   5.195   5.601  1.00  0.00     0.278 HD
HETATM   15  C   UNL     1      67.002   6.340   6.950  1.00  0.00     0.027 C 
HETATM   16  C   UNL     1      66.720   7.821   6.692  1.00  0.00     0.004 C 
HETATM   17  C   UNL     1      66.052   7.977   5.324  1.00  0.00     0.043 C 
ENDBRANCH   1  10
TORSDOF 1
ENDMDL
MODEL 2
REMARK VINA RESULT:      -5.1      1.912      6.430
REMARK  1 active torsions:
REMARK  status: ('A' for Active; 'I' for Inactive)
REMARK       I    between atoms: C_1  and  N_2 
REMARK    1  A    between atoms: C_1  and  C_3 
ROOT
HETATM    1  C   UNL     1      65.486   7.806   6.203  1.00  0.00     0.250 C 
HETATM    2  N   UNL     1      65.849   6.676   6.915  1.00  0.00    -0.350 N 
HETATM    3  O   UNL     1      66.205   8.794   6.238  1.00  0.00    -0.271 OA
HETATM    4  C   UNL     1      67.053   6.678   7.756  1.00  0.00     0.126 C 
HETATM    5  C   UNL     1      65.078   5.429   6.919  1.00  0.00     0.126 C 
HETATM    6  C   UNL     1      65.979   4.245   6.539  1.00  0.00     0.024 C 
HETATM    7  C   UNL     1      67.969   5.505   7.384  1.00  0.00     0.024 C 
HETATM    8  C   UNL     1      67.183   4.185   7.495  1.00  0.00    -0.015 C 
HETATM    9  C   UNL     1      68.075   2.979   7.196  1.00  0.00     0.010 C 
ENDROOT
BRANCH   1  10
HETATM   10  C   UNL     1      64.203   7.938   5.392  1.00  0.00     0.277 C 
HETATM   11  N   UNL     1      63.692   9.322   5.433  1.00  0.00    -0.062 N 
HETATM   12  C   UNL     1      62.447   9.469   4.666  1.00  0.00     0.233 C 
HETATM   13  H   UNL     1      64.397   9.945   5.040  1.00  0.00     0.278 HD
HETATM   14  H   UNL     1      63.495   9.557   6.405  1.00  0.00     0.278 HD
HETATM   15  C   UNL     1      62.662   9.066   3.202  1.00  0.00     0.027 C 
HETATM   16  C   UNL     1      63.117   7.607   3.137  1.00  0.00     0.004 C 
HETATM   17  C   UNL     1      64.410   7.444   3.938  1.00  0.00     0.043 C 
ENDBRANCH   1  10
TORSDOF 1
ENDMDL
MODEL 3
REMARK VINA RESULT:      -4.7      1.118      5.842
REMARK  1 active torsions:
REMARK  status: ('A' for Active; 'I' for Inactive)
REMARK       I    between atoms: C_1  and  N_2 
REMARK    1  A    between atoms: C_1  and  C_3 
ROOT
HETATM    1  C   UNL     1      63.893   6.983   4.905  1.00  0.00     0.250 C 
HETATM    2  N   UNL     1      65.106   6.656   5.488  1.00  0.00    -0.350 N 
HETATM    3  O   UNL     1      63.004   6.145   4.863  1.00  0.00    -0.271 OA
HETATM    4  C   UNL     1      65.350   5.299   5.993  1.00  0.00     0.126 C 
HETATM    5  C   UNL     1      66.228   7.591   5.620  1.00  0.00     0.126 C 
HETATM    6  C   UNL     1      66.696   7.657   7.081  1.00  0.00     0.024 C 
HETATM    7  C   UNL     1      65.811   5.347   7.456  1.00  0.00     0.024 C 
HETATM    8  C   UNL     1      67.057   6.244   7.572  1.00  0.00    -0.015 C 
HETATM    9  C   UNL     1      67.593   6.271   9.005  1.00  0.00     0.010 C 
ENDROOT
BRANCH   1  10
HETATM   10  C   UNL     1      63.584   8.326   4.257  1.00  0.00     0.277 C 
HETATM   11  N   UNL     1      62.736   8.151   3.061  1.00  0.00    -0.062 N 
HETATM   12  C   UNL     1      62.435   9.435   2.411  1.00  0.00     0.233 C 
HETATM   13  H   UNL     1      61.860   7.709   3.339  1.00  0.00     0.278 HD
HETATM   14  H   UNL     1      63.246   7.571   2.395  1.00  0.00     0.278 HD
HETATM   15  C   UNL     1      61.724  10.381   3.386  1.00  0.00     0.027 C 
HETATM   16  C   UNL     1      62.623  10.635   4.596  1.00  0.00     0.004 C 
HETATM   17  C   UNL     1      62.946   9.303   5.276  1.00  0.00     0.043 C 
ENDBRANCH   1  10
TORSDOF 1
ENDMDL
MODEL 4
REMARK VINA RESULT:      -4.7      1.863      2.695
REMARK  1 active torsions:
REMARK  status: ('A' for Active; 'I' for Inactive)
REMARK       I    between atoms: C_1  and  N_2 
REMARK    1  A    between atoms: C_1  and  C_3 
ROOT
HETATM    1  C   UNL     1      64.561   8.444   5.005  1.00  0.00     0.250 C 
HETATM    2  N   UNL     1      63.608   8.307   4.010  1.00  0.00    -0.350 N 
HETATM    3  O   UNL     1      64.662   9.509   5.595  1.00  0.00    -0.271 OA
HETATM    4  C   UNL     1      62.770   9.447   3.617  1.00  0.00     0.126 C 
HETATM    5  C   UNL     1      63.379   7.068   3.261  1.00  0.00     0.126 C 
HETATM    6  C   UNL     1      61.898   6.671   3.330  1.00  0.00     0.024 C 
HETATM    7  C   UNL     1      61.284   9.069   3.689  1.00  0.00     0.024 C 
HETATM    8  C   UNL     1      61.028   7.829   2.812  1.00  0.00    -0.015 C 
HETATM    9  C   UNL     1      59.545   7.453   2.800  1.00  0.00     0.010 C 
ENDROOT
BRANCH   1  10
HETATM   10  C   UNL     1      65.548   7.356   5.407  1.00  0.00     0.277 C 
HETATM   11  N   UNL     1      66.929   7.875   5.418  1.00  0.00    -0.062 N 
HETATM   12  C   UNL     1      67.902   6.837   5.791  1.00  0.00     0.233 C 
HETATM   13  H   UNL     1      66.989   8.640   6.091  1.00  0.00     0.278 HD
HETATM   14  H   UNL     1      67.154   8.195   4.477  1.00  0.00     0.278 HD
HETATM   15  C   UNL     1      67.579   6.266   7.177  1.00  0.00     0.027 C 
HETATM   16  C   UNL     1      66.178   5.653   7.161  1.00  0.00     0.004 C 
HETATM   17  C   UNL     1      65.160   6.725   6.768  1.00  0.00     0.043 C 
ENDBRANCH   1  10
TORSDOF 1
ENDMDL
MODEL 5
REMARK VINA RESULT:      -4.7      1.830      2.452
REMARK  1 active torsions:
REMARK  status: ('A' for Active; 'I' for Inactive)
REMARK       I    between atoms: C_1  and  N_2 
REMARK    1  A    between atoms: C_1  and  C_3 
ROOT
HETATM    1  C   UNL     1      63.356   7.327   4.942  1.00  0.00     0.250 C 
HETATM    2  N   UNL     1      62.437   7.919   4.093  1.00  0.00    -0.350 N 
HETATM    3  O   UNL     1      62.987   6.446   5.705  1.00  0.00    -0.271 OA
HETATM    4  C   UNL     1      61.019   7.544   4.149  1.00  0.00     0.126 C 
HETATM    5  C   UNL     1      62.777   8.960   3.117  1.00  0.00     0.126 C 
HETATM    6  C   UNL     1      62.291   8.557   1.718  1.00  0.00     0.024 C 
HETATM    7  C   UNL     1      60.519   7.130   2.758  1.00  0.00     0.024 C 
HETATM    8  C   UNL     1      60.780   8.272   1.759  1.00  0.00    -0.015 C 
HETATM    9  C   UNL     1      60.238   7.930   0.369  1.00  0.00     0.010 C 
ENDROOT
BRANCH   1  10
HETATM   10  C   UNL     1      64.824   7.724   5.035  1.00  0.00     0.277 C 
HETATM   11  N   UNL     1      65.273   7.759   6.439  1.00  0.00    -0.062 N 
HETATM   12  C   UNL     1      66.685   8.154   6.554  1.00  0.00     0.233 C 
HETATM   13  H   UNL     1      65.156   6.832   6.847  1.00  0.00     0.278 HD
HETATM   14  H   UNL     1      64.711   8.452   6.934  1.00  0.00     0.278 HD
HETATM   15  C   UNL     1      67.582   7.185   5.773  1.00  0.00     0.027 C 
HETATM   16  C   UNL     1      67.180   7.195   4.298  1.00  0.00     0.004 C 
HETATM   17  C   UNL     1      65.710   6.791   4.171  1.00  0.00     0.043 C 
ENDBRANCH   1  10
TORSDOF 1
ENDMDL
MODEL 6
REMARK VINA RESULT:      -4.5      1.626      5.887
REMARK  1 active torsions:
REMARK  status: ('A' for Active; 'I' for Inactive)
REMARK       I    between atoms: C_1  and  N_2 
REMARK    1  A    between atoms: C_1  and  C_3 
ROOT
HETATM    1  C   UNL     1      63.251   7.934   4.712  1.00  0.00     0.250 C 
HETATM    2  N   UNL     1      64.184   6.998   5.126  1.00  0.00    -0.350 N 
HETATM    3  O   UNL     1      62.484   8.418   5.532  1.00  0.00    -0.271 OA
HETATM    4  C   UNL     1      64.215   6.540   6.521  1.00  0.00     0.126 C 
HETATM    5  C   UNL     1      65.170   6.378   4.235  1.00  0.00     0.126 C 
HETATM    6  C   UNL     1      66.585   6.549   4.807  1.00  0.00     0.024 C 
HETATM    7  C   UNL     1      65.621   6.712   7.110  1.00  0.00     0.024 C 
HETATM    8  C   UNL     1      66.640   5.966   6.230  1.00  0.00    -0.015 C 
HETATM    9  C   UNL     1      68.051   6.055   6.815  1.00  0.00     0.010 C 
ENDROOT
BRANCH   1  10
HETATM   10  C   UNL     1      63.069   8.390   3.270  1.00  0.00     0.277 C 
HETATM   11  N   UNL     1      62.504   7.308   2.442  1.00  0.00    -0.062 N 
HETATM   12  C   UNL     1      62.332   7.722   1.042  1.00  0.00     0.233 C 
HETATM   13  H   UNL     1      61.595   7.042   2.821  1.00  0.00     0.278 HD
HETATM   14  H   UNL     1      63.154   6.522   2.461  1.00  0.00     0.278 HD
HETATM   15  C   UNL     1      61.412   8.946   0.949  1.00  0.00     0.027 C 
HETATM   16  C   UNL     1      62.024  10.103   1.739  1.00  0.00     0.004 C 
HETATM   17  C   UNL     1      62.211   9.678   3.197  1.00  0.00     0.043 C 
ENDBRANCH   1  10
TORSDOF 1
ENDMDL
MODEL 7
REMARK VINA RESULT:      -4.5      2.032      2.531
REMARK  1 active torsions:
REMARK  status: ('A' for Active; 'I' for Inactive)
REMARK       I    between atoms: C_1  and  N_2 
REMARK    1  A    between atoms: C_1  and  C_3 
ROOT
HETATM    1  C   UNL     1      63.921   6.268   6.120  1.00  0.00     0.250 C 
HETATM    2  N   UNL     1      63.095   7.199   5.512  1.00  0.00    -0.350 N 
HETATM    3  O   UNL     1      63.465   5.179   6.436  1.00  0.00    -0.271 OA
HETATM    4  C   UNL     1      61.670   6.910   5.304  1.00  0.00     0.126 C 
HETATM    5  C   UNL     1      63.543   8.521   5.065  1.00  0.00     0.126 C 
HETATM    6  C   UNL     1      63.180   8.735   3.588  1.00  0.00     0.024 C 
HETATM    7  C   UNL     1      61.292   7.111   3.831  1.00  0.00     0.024 C 
HETATM    8  C   UNL     1      61.666   8.540   3.396  1.00  0.00    -0.015 C 
HETATM    9  C   UNL     1      61.247   8.809   1.949  1.00  0.00     0.010 C 
ENDROOT
BRANCH   1  10
HETATM   10  C   UNL     1      65.381   6.515   6.476  1.00  0.00     0.277 C 
HETATM   11  N   UNL     1      65.539   6.751   7.924  1.00  0.00    -0.062 N 
HETATM   12  C   UNL     1      66.940   7.004   8.288  1.00  0.00     0.233 C 
HETATM   13  H   UNL     1      65.210   5.929   8.430  1.00  0.00     0.278 HD
HETATM   14  H   UNL     1      64.994   7.576   8.170  1.00  0.00     0.278 HD
HETATM   15  C   UNL     1      67.827   5.820   7.882  1.00  0.00     0.027 C 
HETATM   16  C   UNL     1      67.736   5.611   6.370  1.00  0.00     0.004 C 
HETATM   17  C   UNL     1      66.279   5.352   5.982  1.00  0.00     0.043 C 
ENDBRANCH   1  10
TORSDOF 1
ENDMDL
MODEL 8
REMARK VINA RESULT:      -4.4      2.032      3.351
REMARK  1 active torsions:
REMARK  status: ('A' for Active; 'I' for Inactive)
REMARK       I    between atoms: C_1  and  N_2 
REMARK    1  A    between atoms: C_1  and  C_3 
ROOT
HETATM    1  C   UNL     1      65.513   6.829   6.125  1.00  0.00     0.250 C 
HETATM    2  N   UNL     1      64.998   7.439   4.994  1.00  0.00    -0.350 N 
HETATM    3  O   UNL     1      65.542   7.447   7.179  1.00  0.00    -0.271 OA
HETATM    4  C   UNL     1      64.549   8.837   5.039  1.00  0.00     0.126 C 
HETATM    5  C   UNL     1      64.886   6.782   3.688  1.00  0.00     0.126 C 
HETATM    6  C   UNL     1      63.447   6.882   3.163  1.00  0.00     0.024 C 
HETATM    7  C   UNL     1      63.108   8.953   4.525  1.00  0.00     0.024 C 
HETATM    8  C   UNL     1      63.020   8.359   3.107  1.00  0.00    -0.015 C 
HETATM    9  C   UNL     1      61.612   8.511   2.526  1.00  0.00     0.010 C 
ENDROOT
BRANCH   1  10
HETATM   10  C   UNL     1      66.103   5.425   6.152  1.00  0.00     0.277 C 
HETATM   11  N   UNL     1      67.481   5.441   6.678  1.00  0.00    -0.062 N 
HETATM   12  C   UNL     1      68.075   4.096   6.701  1.00  0.00     0.233 C 
HETATM   13  H   UNL     1      67.468   5.812   7.628  1.00  0.00     0.278 HD
HETATM   14  H   UNL     1      68.047   6.026   6.063  1.00  0.00     0.278 HD
HETATM   15  C   UNL     1      67.231   3.148   7.561  1.00  0.00     0.027 C 
HETATM   16  C   UNL     1      65.818   3.057   6.983  1.00  0.00     0.004 C 
HETATM   17  C   UNL     1      65.195   4.454   6.950  1.00  0.00     0.043 C 
ENDBRANCH   1  10
TORSDOF 1
ENDMDL
MODEL 9
REMARK VINA RESULT:      -4.3      3.523      4.481
REMARK  1 active torsions:
REMARK  status: ('A' for Active; 'I' for Inactive)
REMARK       I    between atoms: C_1  and  N_2 
REMARK    1  A    between atoms: C_1  and  C_3 
ROOT
HETATM    1  C   UNL     1      61.930   6.957   5.750  1.00  0.00     0.250 C 
HETATM    2  N   UNL     1      62.335   7.789   4.720  1.00  0.00    -0.350 N 
HETATM    3  O   UNL     1      62.225   7.242   6.902  1.00  0.00    -0.271 OA
HETATM    4  C   UNL     1      63.166   8.968   4.996  1.00  0.00     0.126 C 
HETATM    5  C   UNL     1      62.011   7.560   3.309  1.00  0.00     0.126 C 
HETATM    6  C   UNL     1      61.355   8.810   2.705  1.00  0.00     0.024 C 
HETATM    7  C   UNL     1      62.520  10.228   4.405  1.00  0.00     0.024 C 
HETATM    8  C   UNL     1      62.281  10.023   2.898  1.00  0.00    -0.015 C 
HETATM    9  C   UNL     1      61.696  11.281   2.251  1.00  0.00     0.010 C 
ENDROOT
BRANCH   1  10
HETATM   10  C   UNL     1      61.162   5.656   5.555  1.00  0.00     0.277 C 
HETATM   11  N   UNL     1      61.597   4.635   6.527  1.00  0.00    -0.062 N 
HETATM   12  C   UNL     1      60.877   3.366   6.348  1.00  0.00     0.233 C 
HETATM   13  H   UNL     1      61.424   4.982   7.470  1.00  0.00     0.278 HD
HETATM   14  H   UNL     1      62.590   4.459   6.376  1.00  0.00     0.278 HD
HETATM   15  C   UNL     1      59.365   3.577   6.499  1.00  0.00     0.027 C 
HETATM   16  C   UNL     1      58.883   4.575   5.445  1.00  0.00     0.004 C 
HETATM   17  C   UNL     1      59.632   5.897   5.621  1.00  0.00     0.043 C 
ENDBRANCH   1  10
TORSDOF 1
ENDMDL
