MODEL 1
REMARK VINA RESULT:      -3.8      0.000      0.000
REMARK  3 active torsions:
REMARK  status: ('A' for Active; 'I' for Inactive)
REMARK    1  A    between atoms: N_1  and  C_3 
REMARK    2  A    between atoms: C_2  and  C_3 
REMARK    3  A    between atoms: C_2  and  N_4 
ROOT
HETATM    1  C   UNL     1      65.357   7.642   5.890  1.00  0.00     0.140 C 
HETATM    2  C   UNL     1      65.540   6.499   4.870  1.00  0.00     0.047 C 
HETATM    3  C   UNL     1      66.746   7.940   6.479  1.00  0.00     0.047 C 
ENDROOT
BRANCH   1   4
HETATM    4  C   UNL     1      64.726   8.875   5.143  1.00  0.00     0.272 C 
BRANCH   4   5
HETATM    5  N   UNL     1      63.327   9.296   5.294  1.00  0.00    -0.069 N 
HETATM    6  C   UNL     1      62.342   8.803   4.348  1.00  0.00     0.235 C 
HETATM    7  C   UNL     1      62.017   9.989   3.462  1.00  0.00     0.029 C 
HETATM    8  C   UNL     1      62.191  11.191   4.373  1.00  0.00     0.029 C 
HETATM    9  C   UNL     1      63.086  10.718   5.513  1.00  0.00     0.235 C 
HETATM   10  H   UNL     1      63.169   8.793   6.166  1.00  0.00     0.280 HD
ENDBRANCH   4   5
ENDBRANCH   1   4
BRANCH   1  11
HETATM   11  N   UNL     1      64.478   7.123   6.951  1.00  0.00    -0.070 N 
HETATM   12  H   UNL     1      63.867   6.404   6.565  1.00  0.00     0.275 HD
HETATM   13  H   UNL     1      63.914   7.885   7.326  1.00  0.00     0.275 HD
HETATM   14  H   UNL     1      65.047   6.721   7.697  1.00  0.00     0.275 HD
ENDBRANCH   1  11
TORSDOF 3
ENDMDL
MODEL 2
REMARK VINA RESULT:      -3.7      1.765      2.632
REMARK  3 active torsions:
REMARK  status: ('A' for Active; 'I' for Inactive)
REMARK    1  A    between atoms: N_1  and  C_3 
REMARK    2  A    between atoms: C_2  and  C_3 
REMARK    3  A    between atoms: C_2  and  N_4 
ROOT
HETATM    1  C   UNL     1      66.569   6.988   7.210  1.00  0.00     0.140 C 
HETATM    2  C   UNL     1      66.350   6.522   8.665  1.00  0.00     0.047 C 
HETATM    3  C   UNL     1      67.744   6.168   6.651  1.00  0.00     0.047 C 
ENDROOT
BRANCH   1   4
HETATM    4  C   UNL     1      65.229   6.765   6.414  1.00  0.00     0.272 C 
BRANCH   4   5
HETATM    5  N   UNL     1      64.250   7.827   6.145  1.00  0.00    -0.069 N 
HETATM    6  C   UNL     1      62.836   7.509   6.215  1.00  0.00     0.235 C 
HETATM    7  C   UNL     1      62.365   7.482   4.774  1.00  0.00     0.029 C 
HETATM    8  C   UNL     1      63.251   8.499   4.076  1.00  0.00     0.029 C 
HETATM    9  C   UNL     1      64.481   8.653   4.964  1.00  0.00     0.235 C 
HETATM   10  H   UNL     1      64.467   8.372   6.979  1.00  0.00     0.280 HD
ENDBRANCH   4   5
ENDBRANCH   1   4
BRANCH   1  11
HETATM   11  N   UNL     1      66.950   8.407   7.275  1.00  0.00    -0.070 N 
HETATM   12  H   UNL     1      66.868   8.824   6.348  1.00  0.00     0.275 HD
HETATM   13  H   UNL     1      67.914   8.486   7.599  1.00  0.00     0.275 HD
HETATM   14  H   UNL     1      66.332   8.896   7.923  1.00  0.00     0.275 HD
ENDBRANCH   1  11
TORSDOF 3
ENDMDL
MODEL 3
REMARK VINA RESULT:      -3.7      1.569      4.599
REMARK  3 active torsions:
REMARK  status: ('A' for Active; 'I' for Inactive)
REMARK    1  A    between atoms: N_1  and  C_3 
REMARK    2  A    between atoms: C_2  and  C_3 
REMARK    3  A    between atoms: C_2  and  N_4 
ROOT
HETATM    1  C   UNL     1      61.897   9.614   3.103  1.00  0.00     0.140 C 
HETATM    2  C   UNL     1      62.014  10.947   3.873  1.00  0.00     0.047 C 
HETATM    3  C   UNL     1      61.979   9.956   1.606  1.00  0.00     0.047 C 
ENDROOT
BRANCH   1   4
HETATM    4  C   UNL     1      63.055   8.663   3.584  1.00  0.00     0.272 C 
BRANCH   4   5
HETATM    5  N   UNL     1      63.579   8.640   4.956  1.00  0.00    -0.069 N 
HETATM    6  C   UNL     1      65.008   8.474   5.156  1.00  0.00     0.235 C 
HETATM    7  C   UNL     1      65.173   7.056   5.665  1.00  0.00     0.029 C 
HETATM    8  C   UNL     1      63.896   6.790   6.442  1.00  0.00     0.029 C 
HETATM    9  C   UNL     1      62.877   7.795   5.916  1.00  0.00     0.235 C 
HETATM   10  H   UNL     1      63.370   9.617   5.156  1.00  0.00     0.280 HD
ENDBRANCH   4   5
ENDBRANCH   1   4
BRANCH   1  11
HETATM   11  N   UNL     1      60.564   9.068   3.407  1.00  0.00    -0.070 N 
HETATM   12  H   UNL     1      60.371   8.280   2.790  1.00  0.00     0.275 HD
HETATM   13  H   UNL     1      59.860   9.792   3.266  1.00  0.00     0.275 HD
HETATM   14  H   UNL     1      60.539   8.754   4.378  1.00  0.00     0.275 HD
ENDBRANCH   1  11
TORSDOF 3
ENDMDL
MODEL 4
REMARK VINA RESULT:      -3.5      2.214      3.400
REMARK  3 active torsions:
REMARK  status: ('A' for Active; 'I' for Inactive)
REMARK    1  A    between atoms: N_1  and  C_3 
REMARK    2  A    between atoms: C_2  and  C_3 
REMARK    3  A    between atoms: C_2  and  N_4 
ROOT
HETATM    1  C   UNL     1      66.839   5.718   7.995  1.00  0.00     0.140 C 
HETATM    2  C   UNL     1      67.778   5.267   6.856  1.00  0.00     0.047 C 
HETATM    3  C   UNL     1      67.734   6.125   9.177  1.00  0.00     0.047 C 
ENDROOT
BRANCH   1   4
HETATM    4  C   UNL     1      65.948   6.900   7.460  1.00  0.00     0.272 C 
BRANCH   4   5
HETATM    5  N   UNL     1      65.227   6.869   6.181  1.00  0.00    -0.069 N 
HETATM    6  C   UNL     1      65.591   7.823   5.149  1.00  0.00     0.235 C 
HETATM    7  C   UNL     1      64.457   8.829   5.123  1.00  0.00     0.029 C 
HETATM    8  C   UNL     1      63.235   8.019   5.517  1.00  0.00     0.029 C 
HETATM    9  C   UNL     1      63.771   6.791   6.245  1.00  0.00     0.235 C 
HETATM   10  H   UNL     1      65.596   5.966   5.884  1.00  0.00     0.280 HD
ENDBRANCH   4   5
ENDBRANCH   1   4
BRANCH   1  11
HETATM   11  N   UNL     1      66.038   4.542   8.371  1.00  0.00    -0.070 N 
HETATM   12  H   UNL     1      65.058   4.713   8.149  1.00  0.00     0.275 HD
HETATM   13  H   UNL     1      66.136   4.371   9.372  1.00  0.00     0.275 HD
HETATM   14  H   UNL     1      66.367   3.727   7.853  1.00  0.00     0.275 HD
ENDBRANCH   1  11
TORSDOF 3
ENDMDL
MODEL 5
REMARK VINA RESULT:      -3.4      2.905      4.895
REMARK  3 active torsions:
REMARK  status: ('A' for Active; 'I' for Inactive)
REMARK    1  A    between atoms: N_1  and  C_3 
REMARK    2  A    between atoms: C_2  and  C_3 
REMARK    3  A    between atoms: C_2  and  N_4 
ROOT
HETATM    1  C   UNL     1      60.796   7.952   1.432  1.00  0.00     0.140 C 
HETATM    2  C   UNL     1      61.898   8.423   0.459  1.00  0.00     0.047 C 
HETATM    3  C   UNL     1      60.769   6.416   1.366  1.00  0.00     0.047 C 
ENDROOT
BRANCH   1   4
HETATM    4  C   UNL     1      61.138   8.502   2.867  1.00  0.00     0.272 C 
BRANCH   4   5
HETATM    5  N   UNL     1      62.270   9.392   3.155  1.00  0.00    -0.069 N 
HETATM    6  C   UNL     1      63.277   8.958   4.106  1.00  0.00     0.235 C 
HETATM    7  C   UNL     1      63.031   9.789   5.350  1.00  0.00     0.029 C 
HETATM    8  C   UNL     1      62.488  11.103   4.816  1.00  0.00     0.029 C 
HETATM    9  C   UNL     1      61.957  10.792   3.420  1.00  0.00     0.235 C 
HETATM   10  H   UNL     1      62.691   9.315   2.230  1.00  0.00     0.280 HD
ENDBRANCH   4   5
ENDBRANCH   1   4
BRANCH   1  11
HETATM   11  N   UNL     1      59.525   8.486   0.918  1.00  0.00    -0.070 N 
HETATM   12  H   UNL     1      58.826   7.745   0.902  1.00  0.00     0.275 HD
HETATM   13  H   UNL     1      59.664   8.844  -0.027  1.00  0.00     0.275 HD
HETATM   14  H   UNL     1      59.204   9.243   1.524  1.00  0.00     0.275 HD
ENDBRANCH   1  11
TORSDOF 3
ENDMDL
MODEL 6
REMARK VINA RESULT:      -3.4      2.246      3.532
REMARK  3 active torsions:
REMARK  status: ('A' for Active; 'I' for Inactive)
REMARK    1  A    between atoms: N_1  and  C_3 
REMARK    2  A    between atoms: C_2  and  C_3 
REMARK    3  A    between atoms: C_2  and  N_4 
ROOT
HETATM    1  C   UNL     1      63.176   8.852   5.197  1.00  0.00     0.140 C 
HETATM    2  C   UNL     1      64.679   8.613   4.942  1.00  0.00     0.047 C 
HETATM    3  C   UNL     1      62.986  10.370   5.354  1.00  0.00     0.047 C 
ENDROOT
BRANCH   1   4
HETATM    4  C   UNL     1      62.369   8.252   3.986  1.00  0.00     0.272 C 
BRANCH   4   5
HETATM    5  N   UNL     1      62.765   8.407   2.580  1.00  0.00    -0.069 N 
HETATM    6  C   UNL     1      62.110   9.423   1.777  1.00  0.00     0.235 C 
HETATM    7  C   UNL     1      61.186   8.659   0.849  1.00  0.00     0.029 C 
HETATM    8  C   UNL     1      61.901   7.339   0.619  1.00  0.00     0.029 C 
HETATM    9  C   UNL     1      62.871   7.187   1.786  1.00  0.00     0.235 C 
HETATM   10  H   UNL     1      63.702   8.755   2.782  1.00  0.00     0.280 HD
ENDBRANCH   4   5
ENDBRANCH   1   4
BRANCH   1  11
HETATM   11  N   UNL     1      62.853   8.185   6.468  1.00  0.00    -0.070 N 
HETATM   12  H   UNL     1      63.715   7.934   6.950  1.00  0.00     0.275 HD
HETATM   13  H   UNL     1      62.310   7.342   6.281  1.00  0.00     0.275 HD
HETATM   14  H   UNL     1      62.307   8.817   7.055  1.00  0.00     0.275 HD
ENDBRANCH   1  11
TORSDOF 3
ENDMDL
MODEL 7
REMARK VINA RESULT:      -3.4      1.592      2.048
REMARK  3 active torsions:
REMARK  status: ('A' for Active; 'I' for Inactive)
REMARK    1  A    between atoms: N_1  and  C_3 
REMARK    2  A    between atoms: C_2  and  C_3 
REMARK    3  A    between atoms: C_2  and  N_4 
ROOT
HETATM    1  C   UNL     1      63.872   7.709   5.240  1.00  0.00     0.140 C 
HETATM    2  C   UNL     1      64.243   6.227   5.455  1.00  0.00     0.047 C 
HETATM    3  C   UNL     1      65.173   8.519   5.375  1.00  0.00     0.047 C 
ENDROOT
BRANCH   1   4
HETATM    4  C   UNL     1      63.203   7.849   3.822  1.00  0.00     0.272 C 
BRANCH   4   5
HETATM    5  N   UNL     1      62.036   8.699   3.548  1.00  0.00    -0.069 N 
HETATM    6  C   UNL     1      61.224   8.415   2.378  1.00  0.00     0.235 C 
HETATM    7  C   UNL     1      61.556   9.516   1.390  1.00  0.00     0.029 C 
HETATM    8  C   UNL     1      61.878  10.714   2.266  1.00  0.00     0.029 C 
HETATM    9  C   UNL     1      62.236  10.141   3.633  1.00  0.00     0.235 C 
HETATM   10  H   UNL     1      61.499   8.389   4.356  1.00  0.00     0.280 HD
ENDBRANCH   4   5
ENDBRANCH   1   4
BRANCH   1  11
HETATM   11  N   UNL     1      62.953   8.076   6.329  1.00  0.00    -0.070 N 
HETATM   12  H   UNL     1      62.055   8.356   5.937  1.00  0.00     0.275 HD
HETATM   13  H   UNL     1      63.350   8.851   6.861  1.00  0.00     0.275 HD
HETATM   14  H   UNL     1      62.820   7.274   6.946  1.00  0.00     0.275 HD
ENDBRANCH   1  11
TORSDOF 3
ENDMDL
MODEL 8
REMARK VINA RESULT:      -3.4      1.359      4.592
REMARK  3 active torsions:
REMARK  status: ('A' for Active; 'I' for Inactive)
REMARK    1  A    between atoms: N_1  and  C_3 
REMARK    2  A    between atoms: C_2  and  C_3 
REMARK    3  A    between atoms: C_2  and  N_4 
ROOT
HETATM    1  C   UNL     1      63.319   8.858   5.160  1.00  0.00     0.140 C 
HETATM    2  C   UNL     1      62.649   8.843   3.770  1.00  0.00     0.047 C 
HETATM    3  C   UNL     1      62.630   7.768   5.998  1.00  0.00     0.047 C 
ENDROOT
BRANCH   1   4
HETATM    4  C   UNL     1      64.861   8.608   4.968  1.00  0.00     0.272 C 
BRANCH   4   5
HETATM    5  N   UNL     1      65.610   7.547   5.654  1.00  0.00    -0.069 N 
HETATM    6  C   UNL     1      66.840   7.893   6.343  1.00  0.00     0.235 C 
HETATM    7  C   UNL     1      67.950   7.340   5.471  1.00  0.00     0.029 C 
HETATM    8  C   UNL     1      67.336   6.111   4.825  1.00  0.00     0.029 C 
HETATM    9  C   UNL     1      65.827   6.309   4.914  1.00  0.00     0.235 C 
HETATM   10  H   UNL     1      64.909   7.385   6.376  1.00  0.00     0.280 HD
ENDBRANCH   4   5
ENDBRANCH   1   4
BRANCH   1  11
HETATM   11  N   UNL     1      63.037  10.177   5.749  1.00  0.00    -0.070 N 
HETATM   12  H   UNL     1      63.370  10.908   5.122  1.00  0.00     0.275 HD
HETATM   13  H   UNL     1      63.512  10.256   6.648  1.00  0.00     0.275 HD
HETATM   14  H   UNL     1      62.031  10.280   5.887  1.00  0.00     0.275 HD
ENDBRANCH   1  11
TORSDOF 3
ENDMDL
MODEL 9
REMARK VINA RESULT:      -3.4      2.484      5.329
REMARK  3 active torsions:
REMARK  status: ('A' for Active; 'I' for Inactive)
REMARK    1  A    between atoms: N_1  and  C_3 
REMARK    2  A    between atoms: C_2  and  C_3 
REMARK    3  A    between atoms: C_2  and  N_4 
ROOT
HETATM    1  C   UNL     1      64.328   7.474   5.664  1.00  0.00     0.140 C 
HETATM    2  C   UNL     1      64.560   6.947   4.232  1.00  0.00     0.047 C 
HETATM    3  C   UNL     1      62.811   7.430   5.916  1.00  0.00     0.047 C 
ENDROOT
BRANCH   1   4
HETATM    4  C   UNL     1      65.145   6.570   6.660  1.00  0.00     0.272 C 
BRANCH   4   5
HETATM    5  N   UNL     1      66.528   6.847   7.070  1.00  0.00    -0.069 N 
HETATM    6  C   UNL     1      67.605   6.092   6.455  1.00  0.00     0.235 C 
HETATM    7  C   UNL     1      68.072   5.126   7.526  1.00  0.00     0.029 C 
HETATM    8  C   UNL     1      67.829   5.870   8.827  1.00  0.00     0.029 C 
HETATM    9  C   UNL     1      66.786   6.935   8.504  1.00  0.00     0.235 C 
HETATM   10  H   UNL     1      66.563   7.782   6.667  1.00  0.00     0.280 HD
ENDBRANCH   4   5
ENDBRANCH   1   4
BRANCH   1  11
HETATM   11  N   UNL     1      64.785   8.873   5.676  1.00  0.00    -0.070 N 
HETATM   12  H   UNL     1      64.085   9.464   5.230  1.00  0.00     0.275 HD
HETATM   13  H   UNL     1      65.667   8.946   5.169  1.00  0.00     0.275 HD
HETATM   14  H   UNL     1      64.922   9.177   6.641  1.00  0.00     0.275 HD
ENDBRANCH   1  11
TORSDOF 3
ENDMDL
