MODEL 1
REMARK VINA RESULT:      -5.4      0.000      0.000
REMARK  3 active torsions:
REMARK  status: ('A' for Active; 'I' for Inactive)
REMARK    1  A    between atoms: C_1  and  N_2 
REMARK    2  A    between atoms: C_3  and  C_6 
REMARK    3  A    between atoms: C_6  and  O_10 
ROOT
HETATM    1  C   UNL     1      62.735   9.413   4.016  1.00  0.00     0.090 A 
HETATM    2  C   UNL     1      62.477  10.718   4.481  1.00  0.00     0.004 A 
HETATM    3  N   UNL     1      62.515   9.076   2.725  1.00  0.00    -0.356 N 
ATOM      4  HN  UNL     1      62.715   8.133   2.392  1.00  0.00     0.166 HD
HETATM    5  C   UNL     1      61.946  11.659   3.582  1.00  0.00     0.014 A 
HETATM    6  C   UNL     1      62.025  10.015   1.884  1.00  0.00     0.089 A 
HETATM    7  C   UNL     1      61.716  11.307   2.265  1.00  0.00     0.018 A 
ENDROOT
BRANCH   1   8
HETATM    8  N   UNL     1      63.296   8.462   4.876  1.00  0.00    -0.269 NA
HETATM    9  C   UNL     1      64.720   8.177   4.659  1.00  0.00     0.097 C 
HETATM   10  C   UNL     1      65.259   7.565   5.957  1.00  0.00     0.015 C 
HETATM   11  C   UNL     1      64.453   6.334   6.383  1.00  0.00     0.002 C 
HETATM   12  C   UNL     1      62.944   6.601   6.371  1.00  0.00     0.015 C 
HETATM   13  C   UNL     1      62.504   7.240   5.051  1.00  0.00     0.097 C 
ENDBRANCH   1   8
BRANCH   2  14
HETATM   14  C   UNL     1      62.825  11.178   5.872  1.00  0.00     0.206 C 
BRANCH  14  15
HETATM   15  O   UNL     1      64.233  11.275   6.065  1.00  0.00    -0.396 OA
HETATM   16  H   UNL     1      64.553  10.483   6.523  1.00  0.00     0.209 HD
ENDBRANCH  14  15
ENDBRANCH   2  14
TORSDOF 3
ENDMDL
MODEL 2
REMARK VINA RESULT:      -4.6      2.088      3.177
REMARK  3 active torsions:
REMARK  status: ('A' for Active; 'I' for Inactive)
REMARK    1  A    between atoms: C_1  and  N_2 
REMARK    2  A    between atoms: C_3  and  C_6 
REMARK    3  A    between atoms: C_6  and  O_10 
ROOT
HETATM    1  C   UNL     1      63.821   8.719   4.960  1.00  0.00     0.090 A 
HETATM    2  C   UNL     1      63.085   8.522   3.775  1.00  0.00     0.004 A 
HETATM    3  N   UNL     1      63.698   9.859   5.677  1.00  0.00    -0.356 N 
ATOM      4  HN  UNL     1      64.224   9.990   6.540  1.00  0.00     0.166 HD
HETATM    5  C   UNL     1      62.244   9.555   3.326  1.00  0.00     0.014 A 
HETATM    6  C   UNL     1      62.861  10.821   5.226  1.00  0.00     0.089 A 
HETATM    7  C   UNL     1      62.127  10.722   4.060  1.00  0.00     0.018 A 
ENDROOT
BRANCH   1   8
HETATM    8  N   UNL     1      64.641   7.697   5.452  1.00  0.00    -0.269 NA
HETATM    9  C   UNL     1      64.057   6.878   6.521  1.00  0.00     0.097 C 
HETATM   10  C   UNL     1      64.831   5.556   6.550  1.00  0.00     0.015 C 
HETATM   11  C   UNL     1      66.337   5.782   6.714  1.00  0.00     0.002 C 
HETATM   12  C   UNL     1      66.874   6.826   5.730  1.00  0.00     0.015 C 
HETATM   13  C   UNL     1      66.021   8.097   5.748  1.00  0.00     0.097 C 
ENDBRANCH   1   8
BRANCH   2  14
HETATM   14  C   UNL     1      63.089   7.224   3.011  1.00  0.00     0.206 C 
BRANCH  14  15
HETATM   15  O   UNL     1      64.406   6.709   2.843  1.00  0.00    -0.396 OA
HETATM   16  H   UNL     1      64.547   6.478   1.911  1.00  0.00     0.209 HD
ENDBRANCH  14  15
ENDBRANCH   2  14
TORSDOF 3
ENDMDL
MODEL 3
REMARK VINA RESULT:      -4.4      3.120      6.184
REMARK  3 active torsions:
REMARK  status: ('A' for Active; 'I' for Inactive)
REMARK    1  A    between atoms: C_1  and  N_2 
REMARK    2  A    between atoms: C_3  and  C_6 
REMARK    3  A    between atoms: C_6  and  O_10 
ROOT
HETATM    1  C   UNL     1      65.998   6.491   6.948  1.00  0.00     0.090 A 
HETATM    2  C   UNL     1      67.102   5.729   6.516  1.00  0.00     0.004 A 
HETATM    3  N   UNL     1      65.890   6.895   8.234  1.00  0.00    -0.356 N 
ATOM      4  HN  UNL     1      65.095   7.457   8.538  1.00  0.00     0.166 HD
HETATM    5  C   UNL     1      68.075   5.360   7.460  1.00  0.00     0.014 A 
HETATM    6  C   UNL     1      66.858   6.540   9.109  1.00  0.00     0.089 A 
HETATM    7  C   UNL     1      67.956   5.769   8.776  1.00  0.00     0.018 A 
ENDROOT
BRANCH   1   8
HETATM    8  N   UNL     1      65.030   6.905   6.026  1.00  0.00    -0.269 NA
HETATM    9  C   UNL     1      65.017   8.342   5.726  1.00  0.00     0.097 C 
HETATM   10  C   UNL     1      64.307   8.514   4.378  1.00  0.00     0.015 C 
HETATM   11  C   UNL     1      62.911   7.884   4.386  1.00  0.00     0.002 C 
HETATM   12  C   UNL     1      62.928   6.452   4.932  1.00  0.00     0.015 C 
HETATM   13  C   UNL     1      63.683   6.373   6.261  1.00  0.00     0.097 C 
ENDBRANCH   1   8
BRANCH   2  14
HETATM   14  C   UNL     1      67.334   5.365   5.073  1.00  0.00     0.206 C 
BRANCH  14  15
HETATM   15  O   UNL     1      67.589   6.513   4.268  1.00  0.00    -0.396 OA
HETATM   16  H   UNL     1      67.023   6.488   3.481  1.00  0.00     0.209 HD
ENDBRANCH  14  15
ENDBRANCH   2  14
TORSDOF 3
ENDMDL
MODEL 4
REMARK VINA RESULT:      -4.4      2.111      5.076
REMARK  3 active torsions:
REMARK  status: ('A' for Active; 'I' for Inactive)
REMARK    1  A    between atoms: C_1  and  N_2 
REMARK    2  A    between atoms: C_3  and  C_6 
REMARK    3  A    between atoms: C_6  and  O_10 
ROOT
HETATM    1  C   UNL     1      62.091   7.892   4.571  1.00  0.00     0.090 A 
HETATM    2  C   UNL     1      61.087   6.906   4.627  1.00  0.00     0.004 A 
HETATM    3  N   UNL     1      63.207   7.797   5.330  1.00  0.00    -0.356 N 
ATOM      4  HN  UNL     1      63.935   8.508   5.276  1.00  0.00     0.166 HD
HETATM    5  C   UNL     1      61.247   5.834   5.522  1.00  0.00     0.014 A 
HETATM    6  C   UNL     1      63.336   6.739   6.162  1.00  0.00     0.089 A 
HETATM    7  C   UNL     1      62.387   5.744   6.301  1.00  0.00     0.018 A 
ENDROOT
BRANCH   1   8
HETATM    8  N   UNL     1      61.979   8.954   3.666  1.00  0.00    -0.269 NA
HETATM    9  C   UNL     1      62.501   8.695   2.319  1.00  0.00     0.097 C 
HETATM   10  C   UNL     1      61.839   9.705   1.377  1.00  0.00     0.015 C 
HETATM   11  C   UNL     1      62.058  11.147   1.844  1.00  0.00     0.002 C 
HETATM   12  C   UNL     1      61.724  11.330   3.328  1.00  0.00     0.015 C 
HETATM   13  C   UNL     1      62.403  10.259   4.186  1.00  0.00     0.097 C 
ENDBRANCH   1   8
BRANCH   2  14
HETATM   14  C   UNL     1      59.891   6.898   3.712  1.00  0.00     0.206 C 
BRANCH  14  15
HETATM   15  O   UNL     1      59.250   8.169   3.663  1.00  0.00    -0.396 OA
HETATM   16  H   UNL     1      58.642   8.196   2.907  1.00  0.00     0.209 HD
ENDBRANCH  14  15
ENDBRANCH   2  14
TORSDOF 3
ENDMDL
MODEL 5
REMARK VINA RESULT:      -4.3      1.394      4.628
REMARK  3 active torsions:
REMARK  status: ('A' for Active; 'I' for Inactive)
REMARK    1  A    between atoms: C_1  and  N_2 
REMARK    2  A    between atoms: C_3  and  C_6 
REMARK    3  A    between atoms: C_6  and  O_10 
ROOT
HETATM    1  C   UNL     1      62.553   7.839   4.479  1.00  0.00     0.090 A 
HETATM    2  C   UNL     1      63.757   7.734   5.202  1.00  0.00     0.004 A 
HETATM    3  N   UNL     1      61.529   6.983   4.701  1.00  0.00    -0.356 N 
ATOM      4  HN  UNL     1      60.655   7.072   4.183  1.00  0.00     0.166 HD
HETATM    5  C   UNL     1      63.893   6.692   6.135  1.00  0.00     0.014 A 
HETATM    6  C   UNL     1      61.688   6.007   5.623  1.00  0.00     0.089 A 
HETATM    7  C   UNL     1      62.846   5.815   6.353  1.00  0.00     0.018 A 
ENDROOT
BRANCH   1   8
HETATM    8  N   UNL     1      62.372   8.886   3.568  1.00  0.00    -0.269 NA
HETATM    9  C   UNL     1      61.636  10.048   4.078  1.00  0.00     0.097 C 
HETATM   10  C   UNL     1      61.991  11.237   3.178  1.00  0.00     0.015 C 
HETATM   11  C   UNL     1      61.705  10.939   1.703  1.00  0.00     0.002 C 
HETATM   12  C   UNL     1      62.293   9.594   1.262  1.00  0.00     0.015 C 
HETATM   13  C   UNL     1      61.912   8.476   2.236  1.00  0.00     0.097 C 
ENDBRANCH   1   8
BRANCH   2  14
HETATM   14  C   UNL     1      64.875   8.736   5.085  1.00  0.00     0.206 C 
BRANCH  14  15
HETATM   15  O   UNL     1      65.731   8.715   6.224  1.00  0.00    -0.396 OA
HETATM   16  H   UNL     1      66.387   8.008   6.124  1.00  0.00     0.209 HD
ENDBRANCH  14  15
ENDBRANCH   2  14
TORSDOF 3
ENDMDL
MODEL 6
REMARK VINA RESULT:      -4.2      1.944      2.435
REMARK  3 active torsions:
REMARK  status: ('A' for Active; 'I' for Inactive)
REMARK    1  A    between atoms: C_1  and  N_2 
REMARK    2  A    between atoms: C_3  and  C_6 
REMARK    3  A    between atoms: C_6  and  O_10 
ROOT
HETATM    1  C   UNL     1      62.935   7.679   2.849  1.00  0.00     0.090 A 
HETATM    2  C   UNL     1      62.250   8.879   2.572  1.00  0.00     0.004 A 
HETATM    3  N   UNL     1      63.164   6.766   1.877  1.00  0.00    -0.356 N 
ATOM      4  HN  UNL     1      63.671   5.906   2.081  1.00  0.00     0.166 HD
HETATM    5  C   UNL     1      61.769   9.093   1.270  1.00  0.00     0.014 A 
HETATM    6  C   UNL     1      62.706   7.018   0.630  1.00  0.00     0.089 A 
HETATM    7  C   UNL     1      61.999   8.153   0.281  1.00  0.00     0.018 A 
ENDROOT
BRANCH   1   8
HETATM    8  N   UNL     1      63.458   7.450   4.127  1.00  0.00    -0.269 NA
HETATM    9  C   UNL     1      64.921   7.369   4.206  1.00  0.00     0.097 C 
HETATM   10  C   UNL     1      65.309   7.647   5.663  1.00  0.00     0.015 C 
HETATM   11  C   UNL     1      64.597   6.699   6.632  1.00  0.00     0.002 C 
HETATM   12  C   UNL     1      63.090   6.628   6.366  1.00  0.00     0.015 C 
HETATM   13  C   UNL     1      62.799   6.379   4.883  1.00  0.00     0.097 C 
ENDBRANCH   1   8
BRANCH   2  14
HETATM   14  C   UNL     1      62.084   9.982   3.584  1.00  0.00     0.206 C 
BRANCH  14  15
HETATM   15  O   UNL     1      61.395  11.104   3.041  1.00  0.00    -0.396 OA
HETATM   16  H   UNL     1      61.256  10.970   2.091  1.00  0.00     0.209 HD
ENDBRANCH  14  15
ENDBRANCH   2  14
TORSDOF 3
ENDMDL
MODEL 7
REMARK VINA RESULT:      -4.1     10.895     13.138
REMARK  3 active torsions:
REMARK  status: ('A' for Active; 'I' for Inactive)
REMARK    1  A    between atoms: C_1  and  N_2 
REMARK    2  A    between atoms: C_3  and  C_6 
REMARK    3  A    between atoms: C_6  and  O_10 
ROOT
HETATM    1  C   UNL     1      56.922   2.222  13.060  1.00  0.00     0.090 A 
HETATM    2  C   UNL     1      57.929   2.404  12.091  1.00  0.00     0.004 A 
HETATM    3  N   UNL     1      57.208   1.696  14.273  1.00  0.00    -0.356 N 
ATOM      4  HN  UNL     1      56.477   1.578  14.974  1.00  0.00     0.166 HD
HETATM    5  C   UNL     1      59.237   1.990  12.395  1.00  0.00     0.014 A 
HETATM    6  C   UNL     1      58.483   1.331  14.537  1.00  0.00     0.089 A 
HETATM    7  C   UNL     1      59.523   1.447  13.634  1.00  0.00     0.018 A 
ENDROOT
BRANCH   1   8
HETATM    8  N   UNL     1      55.616   2.655  12.803  1.00  0.00    -0.269 NA
HETATM    9  C   UNL     1      54.955   3.358  13.908  1.00  0.00     0.097 C 
HETATM   10  C   UNL     1      53.817   4.185  13.299  1.00  0.00     0.015 C 
HETATM   11  C   UNL     1      52.861   3.317  12.474  1.00  0.00     0.002 C 
HETATM   12  C   UNL     1      53.608   2.416  11.486  1.00  0.00     0.015 C 
HETATM   13  C   UNL     1      54.744   1.656  12.176  1.00  0.00     0.097 C 
ENDBRANCH   1   8
BRANCH   2  14
HETATM   14  C   UNL     1      57.688   3.101  10.778  1.00  0.00     0.206 C 
BRANCH  14  15
HETATM   15  O   UNL     1      58.577   4.198  10.586  1.00  0.00    -0.396 OA
HETATM   16  H   UNL     1      59.222   4.222  11.310  1.00  0.00     0.209 HD
ENDBRANCH  14  15
ENDBRANCH   2  14
TORSDOF 3
ENDMDL
MODEL 8
REMARK VINA RESULT:      -4.1      3.096      4.841
REMARK  3 active torsions:
REMARK  status: ('A' for Active; 'I' for Inactive)
REMARK    1  A    between atoms: C_1  and  N_2 
REMARK    2  A    between atoms: C_3  and  C_6 
REMARK    3  A    between atoms: C_6  and  O_10 
ROOT
HETATM    1  C   UNL     1      65.344   6.646   6.215  1.00  0.00     0.090 A 
HETATM    2  C   UNL     1      65.666   7.649   5.280  1.00  0.00     0.004 A 
HETATM    3  N   UNL     1      64.089   6.525   6.705  1.00  0.00    -0.356 N 
ATOM      4  HN  UNL     1      63.860   5.789   7.372  1.00  0.00     0.166 HD
HETATM    5  C   UNL     1      64.664   8.556   4.894  1.00  0.00     0.014 A 
HETATM    6  C   UNL     1      63.146   7.402   6.293  1.00  0.00     0.089 A 
HETATM    7  C   UNL     1      63.384   8.433   5.404  1.00  0.00     0.018 A 
ENDROOT
BRANCH   1   8
HETATM    8  N   UNL     1      66.310   5.706   6.594  1.00  0.00    -0.269 NA
HETATM    9  C   UNL     1      66.095   4.343   6.095  1.00  0.00     0.097 C 
HETATM   10  C   UNL     1      67.448   3.625   6.146  1.00  0.00     0.015 C 
HETATM   11  C   UNL     1      68.061   3.667   7.549  1.00  0.00     0.002 C 
HETATM   12  C   UNL     1      68.054   5.081   8.140  1.00  0.00     0.015 C 
HETATM   13  C   UNL     1      66.672   5.728   8.015  1.00  0.00     0.097 C 
ENDBRANCH   1   8
BRANCH   2  14
HETATM   14  C   UNL     1      67.011   7.745   4.609  1.00  0.00     0.206 C 
BRANCH  14  15
HETATM   15  O   UNL     1      68.054   8.017   5.540  1.00  0.00    -0.396 OA
HETATM   16  H   UNL     1      67.669   8.214   6.409  1.00  0.00     0.209 HD
ENDBRANCH  14  15
ENDBRANCH   2  14
TORSDOF 3
ENDMDL
MODEL 9
REMARK VINA RESULT:      -4.0      2.713      5.590
REMARK  3 active torsions:
REMARK  status: ('A' for Active; 'I' for Inactive)
REMARK    1  A    between atoms: C_1  and  N_2 
REMARK    2  A    between atoms: C_3  and  C_6 
REMARK    3  A    between atoms: C_6  and  O_10 
ROOT
HETATM    1  C   UNL     1      65.504   7.039   6.023  1.00  0.00     0.090 A 
HETATM    2  C   UNL     1      66.892   6.995   5.787  1.00  0.00     0.004 A 
HETATM    3  N   UNL     1      64.997   6.783   7.250  1.00  0.00    -0.356 N 
ATOM      4  HN  UNL     1      63.992   6.828   7.417  1.00  0.00     0.166 HD
HETATM    5  C   UNL     1      67.744   6.638   6.847  1.00  0.00     0.014 A 
HETATM    6  C   UNL     1      65.849   6.466   8.251  1.00  0.00     0.089 A 
HETATM    7  C   UNL     1      67.219   6.370   8.098  1.00  0.00     0.018 A 
ENDROOT
BRANCH   1   8
HETATM    8  N   UNL     1      64.632   7.425   4.998  1.00  0.00    -0.269 NA
HETATM    9  C   UNL     1      63.651   8.455   5.358  1.00  0.00     0.097 C 
HETATM   10  C   UNL     1      63.177   9.103   4.052  1.00  0.00     0.015 C 
HETATM   11  C   UNL     1      62.631   8.064   3.068  1.00  0.00     0.002 C 
HETATM   12  C   UNL     1      63.584   6.877   2.895  1.00  0.00     0.015 C 
HETATM   13  C   UNL     1      64.027   6.318   4.250  1.00  0.00     0.097 C 
ENDBRANCH   1   8
BRANCH   2  14
HETATM   14  C   UNL     1      67.516   7.397   4.476  1.00  0.00     0.206 C 
BRANCH  14  15
HETATM   15  O   UNL     1      67.379   6.380   3.487  1.00  0.00    -0.396 OA
HETATM   16  H   UNL     1      68.196   5.860   3.442  1.00  0.00     0.209 HD
ENDBRANCH  14  15
ENDBRANCH   2  14
TORSDOF 3
ENDMDL
