MODEL 1
REMARK VINA RESULT:      -3.8      0.000      0.000
REMARK  2 active torsions:
REMARK  status: ('A' for Active; 'I' for Inactive)
REMARK    1  A    between atoms: N_1  and  C_2 
REMARK    2  A    between atoms: C_7  and  C_8 
ROOT
HETATM    1  C   UNL     1      63.234  10.658   5.028  1.00  0.00     0.183 C 
HETATM    2  C   UNL     1      62.024  11.101   4.200  1.00  0.00     0.033 C 
HETATM    3  C   UNL     1      63.359   9.131   5.117  1.00  0.00     0.033 C 
HETATM    4  C   UNL     1      63.285   8.470   3.738  1.00  0.00     0.006 C 
HETATM    5  C   UNL     1      62.019  10.427   2.829  1.00  0.00     0.006 C 
HETATM    6  C   UNL     1      62.038   8.893   2.944  1.00  0.00    -0.015 C 
ENDROOT
BRANCH   1   7
HETATM    7  N   UNL     1      63.144  11.224   6.374  1.00  0.00    -0.075 N 
HETATM    8  H   UNL     1      63.490  12.183   6.364  1.00  0.00     0.274 HD
HETATM    9  H   UNL     1      63.706  10.665   7.016  1.00  0.00     0.274 HD
HETATM   10  H   UNL     1      62.172  11.218   6.681  1.00  0.00     0.274 HD
ENDBRANCH   1   7
BRANCH   6  11
HETATM   11  C   UNL     1      60.757   8.306   3.575  1.00  0.00     0.000 C 
HETATM   12  C   UNL     1      60.786   6.793   3.739  1.00  0.00     0.005 C 
ENDBRANCH   6  11
TORSDOF 2
ENDMDL
MODEL 2
REMARK VINA RESULT:      -3.6      2.809      4.340
REMARK  2 active torsions:
REMARK  status: ('A' for Active; 'I' for Inactive)
REMARK    1  A    between atoms: N_1  and  C_2 
REMARK    2  A    between atoms: C_7  and  C_8 
ROOT
HETATM    1  C   UNL     1      59.981   7.698   2.014  1.00  0.00     0.183 C 
HETATM    2  C   UNL     1      60.349   7.958   3.478  1.00  0.00     0.033 C 
HETATM    3  C   UNL     1      60.552   8.762   1.066  1.00  0.00     0.033 C 
HETATM    4  C   UNL     1      62.049   8.984   1.293  1.00  0.00     0.006 C 
HETATM    5  C   UNL     1      61.855   8.148   3.642  1.00  0.00     0.006 C 
HETATM    6  C   UNL     1      62.388   9.290   2.761  1.00  0.00    -0.015 C 
ENDROOT
BRANCH   1   7
HETATM    7  N   UNL     1      58.526   7.643   1.873  1.00  0.00    -0.075 N 
HETATM    8  H   UNL     1      58.265   7.915   0.926  1.00  0.00     0.274 HD
HETATM    9  H   UNL     1      58.095   8.282   2.542  1.00  0.00     0.274 HD
HETATM   10  H   UNL     1      58.203   6.693   2.055  1.00  0.00     0.274 HD
ENDBRANCH   1   7
BRANCH   6  11
HETATM   11  C   UNL     1      61.861  10.683   3.170  1.00  0.00     0.000 C 
HETATM   12  C   UNL     1      61.845  11.697   2.035  1.00  0.00     0.005 C 
ENDBRANCH   6  11
TORSDOF 2
ENDMDL
MODEL 3
REMARK VINA RESULT:      -3.5      1.729      2.773
REMARK  2 active torsions:
REMARK  status: ('A' for Active; 'I' for Inactive)
REMARK    1  A    between atoms: N_1  and  C_2 
REMARK    2  A    between atoms: C_7  and  C_8 
ROOT
HETATM    1  C   UNL     1      62.821   8.232   5.637  1.00  0.00     0.183 C 
HETATM    2  C   UNL     1      62.185   7.207   4.694  1.00  0.00     0.033 C 
HETATM    3  C   UNL     1      63.251   9.513   4.909  1.00  0.00     0.033 C 
HETATM    4  C   UNL     1      62.122  10.088   4.050  1.00  0.00     0.006 C 
HETATM    5  C   UNL     1      61.053   7.833   3.882  1.00  0.00     0.006 C 
HETATM    6  C   UNL     1      61.531   9.053   3.078  1.00  0.00    -0.015 C 
ENDROOT
BRANCH   1   7
HETATM    7  N   UNL     1      63.976   7.635   6.308  1.00  0.00    -0.075 N 
HETATM    8  H   UNL     1      64.184   6.730   5.887  1.00  0.00     0.274 HD
HETATM    9  H   UNL     1      63.766   7.510   7.298  1.00  0.00     0.274 HD
HETATM   10  H   UNL     1      64.783   8.250   6.206  1.00  0.00     0.274 HD
ENDBRANCH   1   7
BRANCH   6  11
HETATM   11  C   UNL     1      62.542   8.701   1.965  1.00  0.00     0.000 C 
HETATM   12  C   UNL     1      61.923   8.588   0.580  1.00  0.00     0.005 C 
ENDBRANCH   6  11
TORSDOF 2
ENDMDL
MODEL 4
REMARK VINA RESULT:      -3.5      1.895      2.512
REMARK  2 active torsions:
REMARK  status: ('A' for Active; 'I' for Inactive)
REMARK    1  A    between atoms: N_1  and  C_2 
REMARK    2  A    between atoms: C_7  and  C_8 
ROOT
HETATM    1  C   UNL     1      62.151  10.624   2.290  1.00  0.00     0.183 C 
HETATM    2  C   UNL     1      61.687   9.498   1.360  1.00  0.00     0.033 C 
HETATM    3  C   UNL     1      62.063  10.235   3.772  1.00  0.00     0.033 C 
HETATM    4  C   UNL     1      62.740   8.890   4.052  1.00  0.00     0.006 C 
HETATM    5  C   UNL     1      62.413   8.191   1.673  1.00  0.00     0.006 C 
HETATM    6  C   UNL     1      62.224   7.766   3.138  1.00  0.00    -0.015 C 
ENDROOT
BRANCH   1   7
HETATM    7  N   UNL     1      61.352  11.825   2.047  1.00  0.00    -0.075 N 
HETATM    8  H   UNL     1      61.939  12.543   1.624  1.00  0.00     0.274 HD
HETATM    9  H   UNL     1      60.977  12.168   2.932  1.00  0.00     0.274 HD
HETATM   10  H   UNL     1      60.583  11.600   1.417  1.00  0.00     0.274 HD
ENDBRANCH   1   7
BRANCH   6  11
HETATM   11  C   UNL     1      60.767   7.394   3.490  1.00  0.00     0.000 C 
HETATM   12  C   UNL     1      60.624   6.608   4.785  1.00  0.00     0.005 C 
ENDBRANCH   6  11
TORSDOF 2
ENDMDL
MODEL 5
REMARK VINA RESULT:      -3.3      2.306      3.279
REMARK  2 active torsions:
REMARK  status: ('A' for Active; 'I' for Inactive)
REMARK    1  A    between atoms: N_1  and  C_2 
REMARK    2  A    between atoms: C_7  and  C_8 
ROOT
HETATM    1  C   UNL     1      62.196   9.343   2.587  1.00  0.00     0.183 C 
HETATM    2  C   UNL     1      62.741   7.922   2.763  1.00  0.00     0.033 C 
HETATM    3  C   UNL     1      61.868  10.017   3.926  1.00  0.00     0.033 C 
HETATM    4  C   UNL     1      63.034   9.925   4.913  1.00  0.00     0.006 C 
HETATM    5  C   UNL     1      63.915   7.900   3.739  1.00  0.00     0.006 C 
HETATM    6  C   UNL     1      63.532   8.484   5.109  1.00  0.00    -0.015 C 
ENDROOT
BRANCH   1   7
HETATM    7  N   UNL     1      61.000   9.312   1.745  1.00  0.00    -0.075 N 
HETATM    8  H   UNL     1      61.276   9.280   0.763  1.00  0.00     0.274 HD
HETATM    9  H   UNL     1      60.443  10.150   1.915  1.00  0.00     0.274 HD
HETATM   10  H   UNL     1      60.448   8.485   1.969  1.00  0.00     0.274 HD
ENDBRANCH   1   7
BRANCH   6  11
HETATM   11  C   UNL     1      62.489   7.638   5.871  1.00  0.00     0.000 C 
HETATM   12  C   UNL     1      62.954   6.225   6.194  1.00  0.00     0.005 C 
ENDBRANCH   6  11
TORSDOF 2
ENDMDL
MODEL 6
REMARK VINA RESULT:      -3.2      2.864      4.164
REMARK  2 active torsions:
REMARK  status: ('A' for Active; 'I' for Inactive)
REMARK    1  A    between atoms: N_1  and  C_2 
REMARK    2  A    between atoms: C_7  and  C_8 
ROOT
HETATM    1  C   UNL     1      62.778   6.703   2.165  1.00  0.00     0.183 C 
HETATM    2  C   UNL     1      62.641   7.283   0.753  1.00  0.00     0.033 C 
HETATM    3  C   UNL     1      62.558   7.758   3.258  1.00  0.00     0.033 C 
HETATM    4  C   UNL     1      61.262   8.544   3.040  1.00  0.00     0.006 C 
HETATM    5  C   UNL     1      61.321   8.034   0.593  1.00  0.00     0.006 C 
HETATM    6  C   UNL     1      61.169   9.156   1.633  1.00  0.00    -0.015 C 
ENDROOT
BRANCH   1   7
HETATM    7  N   UNL     1      64.100   6.098   2.323  1.00  0.00    -0.075 N 
HETATM    8  H   UNL     1      64.002   5.164   2.720  1.00  0.00     0.274 HD
HETATM    9  H   UNL     1      64.666   6.675   2.946  1.00  0.00     0.274 HD
HETATM   10  H   UNL     1      64.556   6.034   1.413  1.00  0.00     0.274 HD
ENDBRANCH   1   7
BRANCH   6  11
HETATM   11  C   UNL     1      62.191  10.301   1.461  1.00  0.00     0.000 C 
HETATM   12  C   UNL     1      61.782  11.603   2.134  1.00  0.00     0.005 C 
ENDBRANCH   6  11
TORSDOF 2
ENDMDL
MODEL 7
REMARK VINA RESULT:      -3.2      4.846      6.352
REMARK  2 active torsions:
REMARK  status: ('A' for Active; 'I' for Inactive)
REMARK    1  A    between atoms: N_1  and  C_2 
REMARK    2  A    between atoms: C_7  and  C_8 
ROOT
HETATM    1  C   UNL     1      65.333   7.441   5.563  1.00  0.00     0.183 C 
HETATM    2  C   UNL     1      65.109   6.670   6.868  1.00  0.00     0.033 C 
HETATM    3  C   UNL     1      66.804   7.437   5.124  1.00  0.00     0.033 C 
HETATM    4  C   UNL     1      67.393   6.024   5.111  1.00  0.00     0.006 C 
HETATM    5  C   UNL     1      65.697   5.263   6.784  1.00  0.00     0.006 C 
HETATM    6  C   UNL     1      67.197   5.289   6.446  1.00  0.00    -0.015 C 
ENDROOT
BRANCH   1   7
HETATM    7  N   UNL     1      64.869   8.819   5.718  1.00  0.00    -0.075 N 
HETATM    8  H   UNL     1      65.547   9.348   6.266  1.00  0.00     0.274 HD
HETATM    9  H   UNL     1      63.968   8.822   6.197  1.00  0.00     0.274 HD
HETATM   10  H   UNL     1      64.766   9.249   4.799  1.00  0.00     0.274 HD
ENDBRANCH   1   7
BRANCH   6  11
HETATM   11  C   UNL     1      68.069   5.916   7.555  1.00  0.00     0.000 C 
HETATM   12  C   UNL     1      67.946   5.224   8.905  1.00  0.00     0.005 C 
ENDBRANCH   6  11
TORSDOF 2
ENDMDL
MODEL 8
REMARK VINA RESULT:      -3.2      2.474      3.515
REMARK  2 active torsions:
REMARK  status: ('A' for Active; 'I' for Inactive)
REMARK    1  A    between atoms: N_1  and  C_2 
REMARK    2  A    between atoms: C_7  and  C_8 
ROOT
HETATM    1  C   UNL     1      61.785   8.826   1.801  1.00  0.00     0.183 C 
HETATM    2  C   UNL     1      62.111  10.152   2.496  1.00  0.00     0.033 C 
HETATM    3  C   UNL     1      62.418   7.621   2.508  1.00  0.00     0.033 C 
HETATM    4  C   UNL     1      62.119   7.616   4.009  1.00  0.00     0.006 C 
HETATM    5  C   UNL     1      61.769  10.092   3.983  1.00  0.00     0.006 C 
HETATM    6  C   UNL     1      62.499   8.940   4.693  1.00  0.00    -0.015 C 
ENDROOT
BRANCH   1   7
HETATM    7  N   UNL     1      62.235   8.875   0.410  1.00  0.00    -0.075 N 
HETATM    8  H   UNL     1      63.254   8.869   0.382  1.00  0.00     0.274 HD
HETATM    9  H   UNL     1      61.887   9.727  -0.030  1.00  0.00     0.274 HD
HETATM   10  H   UNL     1      61.877   8.063  -0.092  1.00  0.00     0.274 HD
ENDBRANCH   1   7
BRANCH   6  11
HETATM   11  C   UNL     1      64.032   9.116   4.741  1.00  0.00     0.000 C 
HETATM   12  C   UNL     1      64.768   7.956   5.397  1.00  0.00     0.005 C 
ENDBRANCH   6  11
TORSDOF 2
ENDMDL
MODEL 9
REMARK VINA RESULT:      -3.1     11.803     13.116
REMARK  2 active torsions:
REMARK  status: ('A' for Active; 'I' for Inactive)
REMARK    1  A    between atoms: N_1  and  C_2 
REMARK    2  A    between atoms: C_7  and  C_8 
ROOT
HETATM    1  C   UNL     1      56.495   1.593  13.147  1.00  0.00     0.183 C 
HETATM    2  C   UNL     1      57.278   1.757  11.840  1.00  0.00     0.033 C 
HETATM    3  C   UNL     1      57.286   0.822  14.213  1.00  0.00     0.033 C 
HETATM    4  C   UNL     1      58.692   1.395  14.408  1.00  0.00     0.006 C 
HETATM    5  C   UNL     1      58.661   2.353  12.098  1.00  0.00     0.006 C 
HETATM    6  C   UNL     1      59.475   1.505  13.089  1.00  0.00    -0.015 C 
ENDROOT
BRANCH   1   7
HETATM    7  N   UNL     1      55.230   0.910  12.881  1.00  0.00    -0.075 N 
HETATM    8  H   UNL     1      54.647   1.494  12.282  1.00  0.00     0.274 HD
HETATM    9  H   UNL     1      54.746   0.736  13.763  1.00  0.00     0.274 HD
HETATM   10  H   UNL     1      55.414   0.022  12.415  1.00  0.00     0.274 HD
ENDBRANCH   1   7
BRANCH   6  11
HETATM   11  C   UNL     1      59.844   0.107  12.548  1.00  0.00     0.000 C 
HETATM   12  C   UNL     1      61.339  -0.182  12.550  1.00  0.00     0.005 C 
ENDBRANCH   6  11
TORSDOF 2
ENDMDL
