MODEL 1
REMARK VINA RESULT:      -5.6      0.000      0.000
REMARK  4 active torsions:
REMARK  status: ('A' for Active; 'I' for Inactive)
REMARK    1  A    between atoms: N_1  and  C_2 
REMARK    2  A    between atoms: C_2  and  C_3 
REMARK    3  A    between atoms: C_7  and  C_14 
REMARK    4  A    between atoms: N_8  and  C_14 
ROOT
HETATM    1  C   UNL     1      63.788   8.640   4.358  1.00  0.00    -0.032 A 
HETATM    2  C   UNL     1      63.089   8.429   3.158  1.00  0.00     0.017 A 
HETATM    3  C   UNL     1      62.148   9.357   2.692  1.00  0.00    -0.033 A 
HETATM    4  C   UNL     1      62.498  10.661   4.712  1.00  0.00     0.001 A 
HETATM    5  C   UNL     1      63.468   9.754   5.143  1.00  0.00     0.009 A 
HETATM    6  C   UNL     1      61.853  10.471   3.488  1.00  0.00     0.009 A 
ENDROOT
BRANCH   1   7
HETATM    7  C   UNL     1      64.919   7.705   4.742  1.00  0.00     0.273 C 
BRANCH   7   8
HETATM    8  N   UNL     1      65.264   7.818   6.173  1.00  0.00    -0.067 N 
HETATM    9  C   UNL     1      64.809   6.679   6.981  1.00  0.00     0.235 C 
HETATM   10  C   UNL     1      65.619   5.398   6.779  1.00  0.00     0.032 C 
HETATM   11  C   UNL     1      67.128   5.630   6.913  1.00  0.00    -0.015 C 
HETATM   12  C   UNL     1      67.583   6.869   6.130  1.00  0.00     0.032 C 
HETATM   13  C   UNL     1      67.899   4.396   6.444  1.00  0.00     0.010 C 
HETATM   14  C   UNL     1      66.688   8.078   6.394  1.00  0.00     0.235 C 
HETATM   15  H   UNL     1      64.746   8.634   6.496  1.00  0.00     0.280 HD
ENDBRANCH   7   8
ENDBRANCH   1   7
BRANCH   3  16
HETATM   16  C   UNL     1      61.569   9.208   1.307  1.00  0.00     0.268 C 
BRANCH  16  17
HETATM   17  N   UNL     1      60.178   8.774   1.326  1.00  0.00    -0.075 N 
HETATM   18  H   UNL     1      60.018   8.180   2.140  1.00  0.00     0.274 HD
HETATM   19  H   UNL     1      59.974   8.249   0.475  1.00  0.00     0.274 HD
HETATM   20  H   UNL     1      59.568   9.590   1.376  1.00  0.00     0.274 HD
ENDBRANCH  16  17
ENDBRANCH   3  16
TORSDOF 4
ENDMDL
MODEL 2
REMARK VINA RESULT:      -5.5      1.955      2.741
REMARK  4 active torsions:
REMARK  status: ('A' for Active; 'I' for Inactive)
REMARK    1  A    between atoms: N_1  and  C_2 
REMARK    2  A    between atoms: C_2  and  C_3 
REMARK    3  A    between atoms: C_7  and  C_14 
REMARK    4  A    between atoms: N_8  and  C_14 
ROOT
HETATM    1  C   UNL     1      64.276   7.626   4.523  1.00  0.00    -0.032 A 
HETATM    2  C   UNL     1      63.959   8.907   5.004  1.00  0.00     0.017 A 
HETATM    3  C   UNL     1      63.030   9.722   4.345  1.00  0.00    -0.033 A 
HETATM    4  C   UNL     1      62.825   8.020   2.622  1.00  0.00     0.001 A 
HETATM    5  C   UNL     1      63.717   7.197   3.314  1.00  0.00     0.009 A 
HETATM    6  C   UNL     1      62.473   9.267   3.142  1.00  0.00     0.009 A 
ENDROOT
BRANCH   1   7
HETATM    7  C   UNL     1      65.153   6.708   5.354  1.00  0.00     0.273 C 
BRANCH   7   8
HETATM    8  N   UNL     1      66.517   7.247   5.514  1.00  0.00    -0.067 N 
HETATM    9  C   UNL     1      66.748   7.895   6.811  1.00  0.00     0.235 C 
HETATM   10  C   UNL     1      66.879   6.926   7.987  1.00  0.00     0.032 C 
HETATM   11  C   UNL     1      67.894   5.809   7.716  1.00  0.00    -0.015 C 
HETATM   12  C   UNL     1      67.698   5.190   6.326  1.00  0.00     0.032 C 
HETATM   13  C   UNL     1      67.795   4.730   8.794  1.00  0.00     0.010 C 
HETATM   14  C   UNL     1      67.556   6.252   5.237  1.00  0.00     0.235 C 
HETATM   15  H   UNL     1      66.588   7.975   4.803  1.00  0.00     0.280 HD
ENDBRANCH   7   8
ENDBRANCH   1   7
BRANCH   3  16
HETATM   16  C   UNL     1      62.557  11.000   4.993  1.00  0.00     0.268 C 
BRANCH  16  17
HETATM   17  N   UNL     1      63.392  11.399   6.117  1.00  0.00    -0.075 N 
HETATM   18  H   UNL     1      62.832  11.412   6.970  1.00  0.00     0.274 HD
HETATM   19  H   UNL     1      63.772  12.330   5.946  1.00  0.00     0.274 HD
HETATM   20  H   UNL     1      64.159  10.734   6.225  1.00  0.00     0.274 HD
ENDBRANCH  16  17
ENDBRANCH   3  16
TORSDOF 4
ENDMDL
MODEL 3
REMARK VINA RESULT:      -4.8      4.621      6.619
REMARK  4 active torsions:
REMARK  status: ('A' for Active; 'I' for Inactive)
REMARK    1  A    between atoms: N_1  and  C_2 
REMARK    2  A    between atoms: C_2  and  C_3 
REMARK    3  A    between atoms: C_7  and  C_14 
REMARK    4  A    between atoms: N_8  and  C_14 
ROOT
HETATM    1  C   UNL     1      61.128   7.883   2.968  1.00  0.00    -0.032 A 
HETATM    2  C   UNL     1      61.402   9.073   3.662  1.00  0.00     0.017 A 
HETATM    3  C   UNL     1      61.841  10.221   2.991  1.00  0.00    -0.033 A 
HETATM    4  C   UNL     1      61.870   8.948   0.921  1.00  0.00     0.001 A 
HETATM    5  C   UNL     1      61.387   7.823   1.593  1.00  0.00     0.009 A 
HETATM    6  C   UNL     1      62.082  10.142   1.613  1.00  0.00     0.009 A 
ENDROOT
BRANCH   1   7
HETATM    7  C   UNL     1      60.492   6.717   3.700  1.00  0.00     0.273 C 
BRANCH   7   8
HETATM    8  N   UNL     1      59.206   6.323   3.093  1.00  0.00    -0.067 N 
HETATM    9  C   UNL     1      58.596   5.140   3.717  1.00  0.00     0.235 C 
HETATM   10  C   UNL     1      57.988   5.397   5.095  1.00  0.00     0.032 C 
HETATM   11  C   UNL     1      57.040   6.603   5.104  1.00  0.00    -0.015 C 
HETATM   12  C   UNL     1      57.651   7.809   4.380  1.00  0.00     0.032 C 
HETATM   13  C   UNL     1      56.671   6.977   6.539  1.00  0.00     0.010 C 
HETATM   14  C   UNL     1      58.248   7.428   3.026  1.00  0.00     0.235 C 
HETATM   15  H   UNL     1      59.445   6.062   2.137  1.00  0.00     0.280 HD
ENDBRANCH   7   8
ENDBRANCH   1   7
BRANCH   3  16
HETATM   16  C   UNL     1      61.928  11.536   3.727  1.00  0.00     0.268 C 
BRANCH  16  17
HETATM   17  N   UNL     1      62.597  11.413   5.015  1.00  0.00    -0.075 N 
HETATM   18  H   UNL     1      61.952  11.677   5.760  1.00  0.00     0.274 HD
HETATM   19  H   UNL     1      63.411  12.027   5.035  1.00  0.00     0.274 HD
HETATM   20  H   UNL     1      62.897  10.447   5.152  1.00  0.00     0.274 HD
ENDBRANCH  16  17
ENDBRANCH   3  16
TORSDOF 4
ENDMDL
MODEL 4
REMARK VINA RESULT:      -4.7      1.993      3.211
REMARK  4 active torsions:
REMARK  status: ('A' for Active; 'I' for Inactive)
REMARK    1  A    between atoms: N_1  and  C_2 
REMARK    2  A    between atoms: C_2  and  C_3 
REMARK    3  A    between atoms: C_7  and  C_14 
REMARK    4  A    between atoms: N_8  and  C_14 
ROOT
HETATM    1  C   UNL     1      62.717   7.992   3.688  1.00  0.00    -0.032 A 
HETATM    2  C   UNL     1      62.872   9.064   4.582  1.00  0.00     0.017 A 
HETATM    3  C   UNL     1      62.509  10.368   4.223  1.00  0.00    -0.033 A 
HETATM    4  C   UNL     1      61.956   9.556   2.001  1.00  0.00     0.001 A 
HETATM    5  C   UNL     1      62.276   8.253   2.385  1.00  0.00     0.009 A 
HETATM    6  C   UNL     1      62.058  10.604   2.918  1.00  0.00     0.009 A 
ENDROOT
BRANCH   1   7
HETATM    7  C   UNL     1      62.957   6.573   4.169  1.00  0.00     0.273 C 
BRANCH   7   8
HETATM    8  N   UNL     1      64.223   6.023   3.646  1.00  0.00    -0.067 N 
HETATM    9  C   UNL     1      65.396   6.855   3.944  1.00  0.00     0.235 C 
HETATM   10  C   UNL     1      65.853   6.803   5.402  1.00  0.00     0.032 C 
HETATM   11  C   UNL     1      66.024   5.367   5.913  1.00  0.00    -0.015 C 
HETATM   12  C   UNL     1      64.830   4.483   5.529  1.00  0.00     0.032 C 
HETATM   13  C   UNL     1      66.218   5.364   7.429  1.00  0.00     0.010 C 
HETATM   14  C   UNL     1      64.451   4.636   4.057  1.00  0.00     0.235 C 
HETATM   15  H   UNL     1      64.105   6.031   2.634  1.00  0.00     0.280 HD
ENDBRANCH   7   8
ENDBRANCH   1   7
BRANCH   3  16
HETATM   16  C   UNL     1      62.491  11.458   5.267  1.00  0.00     0.268 C 
BRANCH  16  17
HETATM   17  N   UNL     1      63.635  11.391   6.166  1.00  0.00    -0.075 N 
HETATM   18  H   UNL     1      63.469  11.990   6.974  1.00  0.00     0.274 HD
HETATM   19  H   UNL     1      64.472  11.705   5.675  1.00  0.00     0.274 HD
HETATM   20  H   UNL     1      63.767  10.428   6.478  1.00  0.00     0.274 HD
ENDBRANCH  16  17
ENDBRANCH   3  16
TORSDOF 4
ENDMDL
MODEL 5
REMARK VINA RESULT:      -4.6      1.311      1.536
REMARK  4 active torsions:
REMARK  status: ('A' for Active; 'I' for Inactive)
REMARK    1  A    between atoms: N_1  and  C_2 
REMARK    2  A    between atoms: C_2  and  C_3 
REMARK    3  A    between atoms: C_7  and  C_14 
REMARK    4  A    between atoms: N_8  and  C_14 
ROOT
HETATM    1  C   UNL     1      63.318   8.380   5.029  1.00  0.00    -0.032 A 
HETATM    2  C   UNL     1      62.343   7.777   4.217  1.00  0.00     0.017 A 
HETATM    3  C   UNL     1      61.441   8.546   3.471  1.00  0.00    -0.033 A 
HETATM    4  C   UNL     1      62.402  10.549   4.457  1.00  0.00     0.001 A 
HETATM    5  C   UNL     1      63.326   9.774   5.159  1.00  0.00     0.009 A 
HETATM    6  C   UNL     1      61.475   9.940   3.608  1.00  0.00     0.009 A 
ENDROOT
BRANCH   1   7
HETATM    7  C   UNL     1      64.384   7.522   5.684  1.00  0.00     0.273 C 
BRANCH   7   8
HETATM    8  N   UNL     1      65.743   8.032   5.415  1.00  0.00    -0.067 N 
HETATM    9  C   UNL     1      66.596   8.096   6.609  1.00  0.00     0.235 C 
HETATM   10  C   UNL     1      67.091   6.737   7.105  1.00  0.00     0.032 C 
HETATM   11  C   UNL     1      67.728   5.901   5.989  1.00  0.00    -0.015 C 
HETATM   12  C   UNL     1      66.869   5.904   4.717  1.00  0.00     0.032 C 
HETATM   13  C   UNL     1      67.960   4.467   6.467  1.00  0.00     0.010 C 
HETATM   14  C   UNL     1      66.415   7.311   4.332  1.00  0.00     0.235 C 
HETATM   15  H   UNL     1      65.597   8.992   5.104  1.00  0.00     0.280 HD
ENDBRANCH   7   8
ENDBRANCH   1   7
BRANCH   3  16
HETATM   16  C   UNL     1      60.546   7.880   2.455  1.00  0.00     0.268 C 
BRANCH  16  17
HETATM   17  N   UNL     1      60.199   6.515   2.825  1.00  0.00    -0.075 N 
HETATM   18  H   UNL     1      59.967   5.983   1.986  1.00  0.00     0.274 HD
HETATM   19  H   UNL     1      59.395   6.527   3.453  1.00  0.00     0.274 HD
HETATM   20  H   UNL     1      60.992   6.078   3.296  1.00  0.00     0.274 HD
ENDBRANCH  16  17
ENDBRANCH   3  16
TORSDOF 4
ENDMDL
MODEL 6
REMARK VINA RESULT:      -4.5      2.851      6.549
REMARK  4 active torsions:
REMARK  status: ('A' for Active; 'I' for Inactive)
REMARK    1  A    between atoms: N_1  and  C_2 
REMARK    2  A    between atoms: C_2  and  C_3 
REMARK    3  A    between atoms: C_7  and  C_14 
REMARK    4  A    between atoms: N_8  and  C_14 
ROOT
HETATM    1  C   UNL     1      61.980   8.962   3.342  1.00  0.00    -0.032 A 
HETATM    2  C   UNL     1      63.121   8.338   3.874  1.00  0.00     0.017 A 
HETATM    3  C   UNL     1      63.903   8.964   4.852  1.00  0.00    -0.033 A 
HETATM    4  C   UNL     1      62.478  10.924   4.676  1.00  0.00     0.001 A 
HETATM    5  C   UNL     1      61.678  10.271   3.736  1.00  0.00     0.009 A 
HETATM    6  C   UNL     1      63.575  10.269   5.240  1.00  0.00     0.009 A 
ENDROOT
BRANCH   1   7
HETATM    7  C   UNL     1      61.063   8.187   2.416  1.00  0.00     0.273 C 
BRANCH   7   8
HETATM    8  N   UNL     1      60.702   6.870   2.976  1.00  0.00    -0.067 N 
HETATM    9  C   UNL     1      59.675   6.937   4.025  1.00  0.00     0.235 C 
HETATM   10  C   UNL     1      58.264   7.223   3.510  1.00  0.00     0.032 C 
HETATM   11  C   UNL     1      57.855   6.288   2.366  1.00  0.00    -0.015 C 
HETATM   12  C   UNL     1      58.964   6.160   1.314  1.00  0.00     0.032 C 
HETATM   13  C   UNL     1      56.562   6.780   1.715  1.00  0.00     0.010 C 
HETATM   14  C   UNL     1      60.331   5.898   1.945  1.00  0.00     0.235 C 
HETATM   15  H   UNL     1      61.557   6.539   3.420  1.00  0.00     0.280 HD
ENDBRANCH   7   8
ENDBRANCH   1   7
BRANCH   3  16
HETATM   16  C   UNL     1      64.994   8.190   5.551  1.00  0.00     0.268 C 
BRANCH  16  17
HETATM   17  N   UNL     1      64.487   7.371   6.644  1.00  0.00    -0.075 N 
HETATM   18  H   UNL     1      63.660   7.813   7.046  1.00  0.00     0.274 HD
HETATM   19  H   UNL     1      65.207   7.278   7.362  1.00  0.00     0.274 HD
HETATM   20  H   UNL     1      64.240   6.446   6.290  1.00  0.00     0.274 HD
ENDBRANCH  16  17
ENDBRANCH   3  16
TORSDOF 4
ENDMDL
MODEL 7
REMARK VINA RESULT:      -4.3      1.804      6.487
REMARK  4 active torsions:
REMARK  status: ('A' for Active; 'I' for Inactive)
REMARK    1  A    between atoms: N_1  and  C_2 
REMARK    2  A    between atoms: C_2  and  C_3 
REMARK    3  A    between atoms: C_7  and  C_14 
REMARK    4  A    between atoms: N_8  and  C_14 
ROOT
HETATM    1  C   UNL     1      63.502   6.467   6.356  1.00  0.00    -0.032 A 
HETATM    2  C   UNL     1      64.740   6.695   6.980  1.00  0.00     0.017 A 
HETATM    3  C   UNL     1      65.575   5.633   7.349  1.00  0.00    -0.033 A 
HETATM    4  C   UNL     1      63.864   4.082   6.593  1.00  0.00     0.001 A 
HETATM    5  C   UNL     1      63.061   5.149   6.186  1.00  0.00     0.009 A 
HETATM    6  C   UNL     1      65.118   4.323   7.158  1.00  0.00     0.009 A 
ENDROOT
BRANCH   1   7
HETATM    7  C   UNL     1      62.705   7.639   5.816  1.00  0.00     0.273 C 
BRANCH   7   8
HETATM    8  N   UNL     1      63.550   8.564   5.036  1.00  0.00    -0.067 N 
HETATM    9  C   UNL     1      64.074   7.980   3.794  1.00  0.00     0.235 C 
HETATM   10  C   UNL     1      63.035   7.824   2.683  1.00  0.00     0.032 C 
HETATM   11  C   UNL     1      62.254   9.118   2.423  1.00  0.00    -0.015 C 
HETATM   12  C   UNL     1      61.779   9.765   3.731  1.00  0.00     0.032 C 
HETATM   13  C   UNL     1      61.063   8.843   1.505  1.00  0.00     0.010 C 
HETATM   14  C   UNL     1      62.894   9.846   4.772  1.00  0.00     0.235 C 
HETATM   15  H   UNL     1      64.353   8.745   5.638  1.00  0.00     0.280 HD
ENDBRANCH   7   8
ENDBRANCH   1   7
BRANCH   3  16
HETATM   16  C   UNL     1      66.980   5.912   7.824  1.00  0.00     0.268 C 
BRANCH  16  17
HETATM   17  N   UNL     1      67.015   6.463   9.172  1.00  0.00    -0.075 N 
HETATM   18  H   UNL     1      67.119   7.477   9.123  1.00  0.00     0.274 HD
HETATM   19  H   UNL     1      67.804   6.064   9.682  1.00  0.00     0.274 HD
HETATM   20  H   UNL     1      66.147   6.234   9.657  1.00  0.00     0.274 HD
ENDBRANCH  16  17
ENDBRANCH   3  16
TORSDOF 4
ENDMDL
MODEL 8
REMARK VINA RESULT:      -4.2      4.334      7.091
REMARK  4 active torsions:
REMARK  status: ('A' for Active; 'I' for Inactive)
REMARK    1  A    between atoms: N_1  and  C_2 
REMARK    2  A    between atoms: C_2  and  C_3 
REMARK    3  A    between atoms: C_7  and  C_14 
REMARK    4  A    between atoms: N_8  and  C_14 
ROOT
HETATM    1  C   UNL     1      60.644   7.640   3.083  1.00  0.00    -0.032 A 
HETATM    2  C   UNL     1      61.333   8.406   4.038  1.00  0.00     0.017 A 
HETATM    3  C   UNL     1      61.965   9.606   3.690  1.00  0.00    -0.033 A 
HETATM    4  C   UNL     1      61.339   9.213   1.374  1.00  0.00     0.001 A 
HETATM    5  C   UNL     1      60.672   8.043   1.742  1.00  0.00     0.009 A 
HETATM    6  C   UNL     1      61.970   9.996   2.344  1.00  0.00     0.009 A 
ENDROOT
BRANCH   1   7
HETATM    7  C   UNL     1      59.828   6.441   3.527  1.00  0.00     0.273 C 
BRANCH   7   8
HETATM    8  N   UNL     1      58.914   6.779   4.635  1.00  0.00    -0.067 N 
HETATM    9  C   UNL     1      57.788   7.632   4.232  1.00  0.00     0.235 C 
HETATM   10  C   UNL     1      56.710   6.912   3.422  1.00  0.00     0.032 C 
HETATM   11  C   UNL     1      56.237   5.618   4.094  1.00  0.00    -0.015 C 
HETATM   12  C   UNL     1      57.417   4.770   4.585  1.00  0.00     0.032 C 
HETATM   13  C   UNL     1      55.367   4.808   3.132  1.00  0.00     0.010 C 
HETATM   14  C   UNL     1      58.440   5.599   5.360  1.00  0.00     0.235 C 
HETATM   15  H   UNL     1      59.484   7.328   5.278  1.00  0.00     0.280 HD
ENDBRANCH   7   8
ENDBRANCH   1   7
BRANCH   3  16
HETATM   16  C   UNL     1      62.515  10.507   4.768  1.00  0.00     0.268 C 
BRANCH  16  17
HETATM   17  N   UNL     1      63.624   9.900   5.492  1.00  0.00    -0.075 N 
HETATM   18  H   UNL     1      64.483  10.411   5.290  1.00  0.00     0.274 HD
HETATM   19  H   UNL     1      63.729   8.928   5.200  1.00  0.00     0.274 HD
HETATM   20  H   UNL     1      63.436   9.935   6.495  1.00  0.00     0.274 HD
ENDBRANCH  16  17
ENDBRANCH   3  16
TORSDOF 4
ENDMDL
MODEL 9
REMARK VINA RESULT:      -4.2      3.893      5.107
REMARK  4 active torsions:
REMARK  status: ('A' for Active; 'I' for Inactive)
REMARK    1  A    between atoms: N_1  and  C_2 
REMARK    2  A    between atoms: C_2  and  C_3 
REMARK    3  A    between atoms: C_7  and  C_14 
REMARK    4  A    between atoms: N_8  and  C_14 
ROOT
HETATM    1  C   UNL     1      61.032   7.898   3.182  1.00  0.00    -0.032 A 
HETATM    2  C   UNL     1      61.371   9.119   3.789  1.00  0.00     0.017 A 
HETATM    3  C   UNL     1      61.798  10.215   3.029  1.00  0.00    -0.033 A 
HETATM    4  C   UNL     1      61.684   8.825   1.039  1.00  0.00     0.001 A 
HETATM    5  C   UNL     1      61.213   7.753   1.801  1.00  0.00     0.009 A 
HETATM    6  C   UNL     1      61.960  10.051   1.647  1.00  0.00     0.009 A 
ENDROOT
BRANCH   1   7
HETATM    7  C   UNL     1      60.411   6.792   4.014  1.00  0.00     0.273 C 
BRANCH   7   8
HETATM    8  N   UNL     1      61.434   5.986   4.708  1.00  0.00    -0.067 N 
HETATM    9  C   UNL     1      61.640   6.375   6.110  1.00  0.00     0.235 C 
HETATM   10  C   UNL     1      60.515   5.953   7.054  1.00  0.00     0.032 C 
HETATM   11  C   UNL     1      60.159   4.468   6.918  1.00  0.00    -0.015 C 
HETATM   12  C   UNL     1      60.024   4.050   5.448  1.00  0.00     0.032 C 
HETATM   13  C   UNL     1      58.869   4.159   7.676  1.00  0.00     0.010 C 
HETATM   14  C   UNL     1      61.193   4.546   4.598  1.00  0.00     0.235 C 
HETATM   15  H   UNL     1      62.301   6.194   4.214  1.00  0.00     0.280 HD
ENDBRANCH   7   8
ENDBRANCH   1   7
BRANCH   3  16
HETATM   16  C   UNL     1      61.954  11.567   3.681  1.00  0.00     0.268 C 
BRANCH  16  17
HETATM   17  N   UNL     1      62.564  11.484   5.001  1.00  0.00    -0.075 N 
HETATM   18  H   UNL     1      63.488  11.917   4.978  1.00  0.00     0.274 HD
HETATM   19  H   UNL     1      62.655  10.504   5.273  1.00  0.00     0.274 HD
HETATM   20  H   UNL     1      61.977  11.971   5.679  1.00  0.00     0.274 HD
ENDBRANCH  16  17
ENDBRANCH   3  16
TORSDOF 4
ENDMDL
