MODEL 1
REMARK VINA RESULT:      -6.1      0.000      0.000
REMARK  1 active torsions:
REMARK  status: ('A' for Active; 'I' for Inactive)
REMARK    1  A    between atoms: C_1  and  C_6 
ROOT
HETATM    1  C   UNL     1      63.248   7.897   4.419  1.00  0.00     0.055 A 
HETATM    2  C   UNL     1      62.767   9.094   3.817  1.00  0.00     0.011 A 
HETATM    3  N   UNL     1      62.625   7.908   1.707  1.00  0.00    -0.359 N 
ATOM      4  HN  UNL     1      62.404   7.911   0.711  1.00  0.00     0.166 HD
HETATM    5  C   UNL     1      62.468   9.020   2.437  1.00  0.00     0.043 A 
HETATM    6  C   UNL     1      63.403   6.740   3.642  1.00  0.00     0.043 A 
HETATM    7  C   UNL     1      63.079   6.785   2.300  1.00  0.00     0.006 A 
HETATM    8  C   UNL     1      62.554  10.337   4.471  1.00  0.00     0.057 A 
HETATM    9  C   UNL     1      61.968  10.139   1.780  1.00  0.00     0.033 A 
HETATM   10  C   UNL     1      62.045  11.434   3.787  1.00  0.00     0.117 A 
HETATM   11  C   UNL     1      61.743  11.345   2.442  1.00  0.00     0.044 A 
HETATM   12  F   UNL     1      61.835  12.584   4.438  1.00  0.00    -0.206 F 
HETATM   13  C   UNL     1      63.204   5.569   1.432  1.00  0.00     0.068 C 
ENDROOT
BRANCH   1  14
HETATM   14  C   UNL     1      63.570   7.819   5.875  1.00  0.00     0.210 C 
HETATM   15  O   UNL     1      62.817   7.581   6.798  1.00  0.00    -0.644 OA
HETATM   16  O   UNL     1      64.877   8.039   6.128  1.00  0.00    -0.644 OA
ENDBRANCH   1  14
TORSDOF 1
ENDMDL
MODEL 2
REMARK VINA RESULT:      -5.6      2.735      3.982
REMARK  1 active torsions:
REMARK  status: ('A' for Active; 'I' for Inactive)
REMARK    1  A    between atoms: C_1  and  C_6 
ROOT
HETATM    1  C   UNL     1      62.624   9.779   4.082  1.00  0.00     0.055 A 
HETATM    2  C   UNL     1      63.611   8.760   4.205  1.00  0.00     0.011 A 
HETATM    3  N   UNL     1      62.595   7.629   2.316  1.00  0.00    -0.359 N 
ATOM      4  HN  UNL     1      62.578   6.838   1.672  1.00  0.00     0.166 HD
HETATM    5  C   UNL     1      63.534   7.703   3.269  1.00  0.00     0.043 A 
HETATM    6  C   UNL     1      61.652   9.689   3.076  1.00  0.00     0.043 A 
HETATM    7  C   UNL     1      61.673   8.608   2.216  1.00  0.00     0.006 A 
HETATM    8  C   UNL     1      64.658   8.715   5.165  1.00  0.00     0.057 A 
HETATM    9  C   UNL     1      64.477   6.682   3.305  1.00  0.00     0.033 A 
HETATM   10  C   UNL     1      65.589   7.684   5.167  1.00  0.00     0.117 A 
HETATM   11  C   UNL     1      65.512   6.665   4.239  1.00  0.00     0.044 A 
HETATM   12  F   UNL     1      66.576   7.683   6.071  1.00  0.00    -0.206 F 
HETATM   13  C   UNL     1      60.670   8.478   1.110  1.00  0.00     0.068 C 
ENDROOT
BRANCH   1  14
HETATM   14  C   UNL     1      62.605  10.972   4.979  1.00  0.00     0.210 C 
HETATM   15  O   UNL     1      63.013  11.059   6.121  1.00  0.00    -0.644 OA
HETATM   16  O   UNL     1      62.067  12.057   4.386  1.00  0.00    -0.644 OA
ENDBRANCH   1  14
TORSDOF 1
ENDMDL
MODEL 3
REMARK VINA RESULT:      -5.4      2.455      4.077
REMARK  1 active torsions:
REMARK  status: ('A' for Active; 'I' for Inactive)
REMARK    1  A    between atoms: C_1  and  C_6 
ROOT
HETATM    1  C   UNL     1      62.899   9.139   3.924  1.00  0.00     0.055 A 
HETATM    2  C   UNL     1      62.929   8.146   2.905  1.00  0.00     0.011 A 
HETATM    3  N   UNL     1      61.993   9.775   1.372  1.00  0.00    -0.359 N 
ATOM      4  HN  UNL     1      61.654  10.008   0.438  1.00  0.00     0.166 HD
HETATM    5  C   UNL     1      62.458   8.545   1.633  1.00  0.00     0.043 A 
HETATM    6  C   UNL     1      62.415  10.422   3.633  1.00  0.00     0.043 A 
HETATM    7  C   UNL     1      61.978  10.700   2.353  1.00  0.00     0.006 A 
HETATM    8  C   UNL     1      63.393   6.810   3.045  1.00  0.00     0.057 A 
HETATM    9  C   UNL     1      62.478   7.642   0.576  1.00  0.00     0.033 A 
HETATM   10  C   UNL     1      63.409   5.936   1.965  1.00  0.00     0.117 A 
HETATM   11  C   UNL     1      62.958   6.342   0.725  1.00  0.00     0.044 A 
HETATM   12  F   UNL     1      63.873   4.691   2.126  1.00  0.00    -0.206 F 
HETATM   13  C   UNL     1      61.474  12.063   1.985  1.00  0.00     0.068 C 
ENDROOT
BRANCH   1  14
HETATM   14  C   UNL     1      63.399   8.868   5.305  1.00  0.00     0.210 C 
HETATM   15  O   UNL     1      62.836   8.274   6.203  1.00  0.00    -0.644 OA
HETATM   16  O   UNL     1      64.638   9.360   5.513  1.00  0.00    -0.644 OA
ENDBRANCH   1  14
TORSDOF 1
ENDMDL
MODEL 4
REMARK VINA RESULT:      -5.2      2.497      3.367
REMARK  1 active torsions:
REMARK  status: ('A' for Active; 'I' for Inactive)
REMARK    1  A    between atoms: C_1  and  C_6 
ROOT
HETATM    1  C   UNL     1      62.555   7.643   3.171  1.00  0.00     0.055 A 
HETATM    2  C   UNL     1      62.350   9.040   3.353  1.00  0.00     0.011 A 
HETATM    3  N   UNL     1      63.159   8.803   5.627  1.00  0.00    -0.359 N 
ATOM      4  HN  UNL     1      63.375   9.224   6.531  1.00  0.00     0.166 HD
HETATM    5  C   UNL     1      62.685   9.557   4.626  1.00  0.00     0.043 A 
HETATM    6  C   UNL     1      63.057   6.869   4.227  1.00  0.00     0.043 A 
HETATM    7  C   UNL     1      63.348   7.482   5.430  1.00  0.00     0.006 A 
HETATM    8  C   UNL     1      61.856   9.951   2.381  1.00  0.00     0.057 A 
HETATM    9  C   UNL     1      62.539  10.917   4.876  1.00  0.00     0.033 A 
HETATM   10  C   UNL     1      61.732  11.306   2.662  1.00  0.00     0.117 A 
HETATM   11  C   UNL     1      62.075  11.801   3.905  1.00  0.00     0.044 A 
HETATM   12  F   UNL     1      61.283  12.141   1.717  1.00  0.00    -0.206 F 
HETATM   13  C   UNL     1      63.909   6.703   6.581  1.00  0.00     0.068 C 
ENDROOT
BRANCH   1  14
HETATM   14  C   UNL     1      62.278   6.967   1.868  1.00  0.00     0.210 C 
HETATM   15  O   UNL     1      61.200   6.691   1.381  1.00  0.00    -0.644 OA
HETATM   16  O   UNL     1      63.406   6.663   1.194  1.00  0.00    -0.644 OA
ENDBRANCH   1  14
TORSDOF 1
ENDMDL
MODEL 5
REMARK VINA RESULT:      -4.7      2.973      3.999
REMARK  1 active torsions:
REMARK  status: ('A' for Active; 'I' for Inactive)
REMARK    1  A    between atoms: C_1  and  C_6 
ROOT
HETATM    1  C   UNL     1      63.139   8.056   4.509  1.00  0.00     0.055 A 
HETATM    2  C   UNL     1      61.993   7.348   4.970  1.00  0.00     0.011 A 
HETATM    3  N   UNL     1      60.883   7.906   2.888  1.00  0.00    -0.359 N 
ATOM      4  HN  UNL     1      60.055   7.858   2.294  1.00  0.00     0.166 HD
HETATM    5  C   UNL     1      60.889   7.311   4.088  1.00  0.00     0.043 A 
HETATM    6  C   UNL     1      63.120   8.668   3.248  1.00  0.00     0.043 A 
HETATM    7  C   UNL     1      61.982   8.568   2.471  1.00  0.00     0.006 A 
HETATM    8  C   UNL     1      61.865   6.675   6.215  1.00  0.00     0.057 A 
HETATM    9  C   UNL     1      59.740   6.618   4.452  1.00  0.00     0.033 A 
HETATM   10  C   UNL     1      60.706   5.983   6.544  1.00  0.00     0.117 A 
HETATM   11  C   UNL     1      59.639   5.943   5.668  1.00  0.00     0.044 A 
HETATM   12  F   UNL     1      60.626   5.342   7.716  1.00  0.00    -0.206 F 
HETATM   13  C   UNL     1      61.920   9.185   1.106  1.00  0.00     0.068 C 
ENDROOT
BRANCH   1  14
HETATM   14  C   UNL     1      64.391   8.147   5.320  1.00  0.00     0.210 C 
HETATM   15  O   UNL     1      65.123   7.243   5.671  1.00  0.00    -0.644 OA
HETATM   16  O   UNL     1      64.694   9.415   5.662  1.00  0.00    -0.644 OA
ENDBRANCH   1  14
TORSDOF 1
ENDMDL
MODEL 6
REMARK VINA RESULT:      -4.7      2.138      2.806
REMARK  1 active torsions:
REMARK  status: ('A' for Active; 'I' for Inactive)
REMARK    1  A    between atoms: C_1  and  C_6 
ROOT
HETATM    1  C   UNL     1      65.170   7.384   5.212  1.00  0.00     0.055 A 
HETATM    2  C   UNL     1      63.963   7.965   4.732  1.00  0.00     0.011 A 
HETATM    3  N   UNL     1      63.097   5.728   4.376  1.00  0.00    -0.359 N 
ATOM      4  HN  UNL     1      62.341   5.118   4.063  1.00  0.00     0.166 HD
HETATM    5  C   UNL     1      62.954   7.059   4.330  1.00  0.00     0.043 A 
HETATM    6  C   UNL     1      65.303   5.989   5.258  1.00  0.00     0.043 A 
HETATM    7  C   UNL     1      64.249   5.201   4.838  1.00  0.00     0.006 A 
HETATM    8  C   UNL     1      63.679   9.353   4.631  1.00  0.00     0.057 A 
HETATM    9  C   UNL     1      61.734   7.546   3.874  1.00  0.00     0.033 A 
HETATM   10  C   UNL     1      62.445   9.806   4.180  1.00  0.00     0.117 A 
HETATM   11  C   UNL     1      61.463   8.911   3.803  1.00  0.00     0.044 A 
HETATM   12  F   UNL     1      62.203  11.121   4.117  1.00  0.00    -0.206 F 
HETATM   13  C   UNL     1      64.333   3.705   4.889  1.00  0.00     0.068 C 
ENDROOT
BRANCH   1  14
HETATM   14  C   UNL     1      66.308   8.219   5.703  1.00  0.00     0.210 C 
HETATM   15  O   UNL     1      66.391   8.831   6.749  1.00  0.00    -0.644 OA
HETATM   16  O   UNL     1      67.341   8.245   4.837  1.00  0.00    -0.644 OA
ENDBRANCH   1  14
TORSDOF 1
ENDMDL
MODEL 7
REMARK VINA RESULT:      -4.6      2.743      3.807
REMARK  1 active torsions:
REMARK  status: ('A' for Active; 'I' for Inactive)
REMARK    1  A    between atoms: C_1  and  C_6 
ROOT
HETATM    1  C   UNL     1      64.442   6.676   3.970  1.00  0.00     0.055 A 
HETATM    2  C   UNL     1      63.616   7.825   3.825  1.00  0.00     0.011 A 
HETATM    3  N   UNL     1      64.758   8.814   5.722  1.00  0.00    -0.359 N 
ATOM      4  HN  UNL     1      64.872   9.594   6.370  1.00  0.00     0.166 HD
HETATM    5  C   UNL     1      63.839   8.872   4.749  1.00  0.00     0.043 A 
HETATM    6  C   UNL     1      65.403   6.632   4.990  1.00  0.00     0.043 A 
HETATM    7  C   UNL     1      65.532   7.715   5.837  1.00  0.00     0.006 A 
HETATM    8  C   UNL     1      62.607   8.018   2.843  1.00  0.00     0.057 A 
HETATM    9  C   UNL     1      63.091  10.041   4.659  1.00  0.00     0.033 A 
HETATM   10  C   UNL     1      61.884   9.203   2.775  1.00  0.00     0.117 A 
HETATM   11  C   UNL     1      62.121  10.223   3.675  1.00  0.00     0.044 A 
HETATM   12  F   UNL     1      60.956   9.361   1.824  1.00  0.00    -0.206 F 
HETATM   13  C   UNL     1      66.560   7.727   6.928  1.00  0.00     0.068 C 
ENDROOT
BRANCH   1  14
HETATM   14  C   UNL     1      64.341   5.508   3.043  1.00  0.00     0.210 C 
HETATM   15  O   UNL     1      64.859   5.370   1.953  1.00  0.00    -0.644 OA
HETATM   16  O   UNL     1      63.576   4.516   3.543  1.00  0.00    -0.644 OA
ENDBRANCH   1  14
TORSDOF 1
ENDMDL
MODEL 8
REMARK VINA RESULT:      -4.6      4.094      5.756
REMARK  1 active torsions:
REMARK  status: ('A' for Active; 'I' for Inactive)
REMARK    1  A    between atoms: C_1  and  C_6 
ROOT
HETATM    1  C   UNL     1      64.926   7.057   5.220  1.00  0.00     0.055 A 
HETATM    2  C   UNL     1      65.946   6.450   6.006  1.00  0.00     0.011 A 
HETATM    3  N   UNL     1      66.318   4.875   4.200  1.00  0.00    -0.359 N 
ATOM      4  HN  UNL     1      66.822   4.071   3.826  1.00  0.00     0.166 HD
HETATM    5  C   UNL     1      66.612   5.350   5.418  1.00  0.00     0.043 A 
HETATM    6  C   UNL     1      64.634   6.552   3.946  1.00  0.00     0.043 A 
HETATM    7  C   UNL     1      65.350   5.469   3.473  1.00  0.00     0.006 A 
HETATM    8  C   UNL     1      66.357   6.850   7.306  1.00  0.00     0.057 A 
HETATM    9  C   UNL     1      67.639   4.718   6.109  1.00  0.00     0.033 A 
HETATM   10  C   UNL     1      67.394   6.202   7.965  1.00  0.00     0.117 A 
HETATM   11  C   UNL     1      68.046   5.137   7.374  1.00  0.00     0.044 A 
HETATM   12  F   UNL     1      67.771   6.618   9.180  1.00  0.00    -0.206 F 
HETATM   13  C   UNL     1      65.092   4.907   2.107  1.00  0.00     0.068 C 
ENDROOT
BRANCH   1  14
HETATM   14  C   UNL     1      64.164   8.249   5.700  1.00  0.00     0.210 C 
HETATM   15  O   UNL     1      63.073   8.276   6.233  1.00  0.00    -0.644 OA
HETATM   16  O   UNL     1      64.830   9.404   5.497  1.00  0.00    -0.644 OA
ENDBRANCH   1  14
TORSDOF 1
ENDMDL
MODEL 9
REMARK VINA RESULT:      -4.6      1.491      1.826
REMARK  1 active torsions:
REMARK  status: ('A' for Active; 'I' for Inactive)
REMARK    1  A    between atoms: C_1  and  C_6 
ROOT
HETATM    1  C   UNL     1      62.619   7.272   4.071  1.00  0.00     0.055 A 
HETATM    2  C   UNL     1      62.520   8.690   4.151  1.00  0.00     0.011 A 
HETATM    3  N   UNL     1      61.527   8.687   1.939  1.00  0.00    -0.359 N 
ATOM      4  HN  UNL     1      61.133   9.204   1.152  1.00  0.00     0.166 HD
HETATM    5  C   UNL     1      61.950   9.338   3.031  1.00  0.00     0.043 A 
HETATM    6  C   UNL     1      62.168   6.605   2.923  1.00  0.00     0.043 A 
HETATM    7  C   UNL     1      61.628   7.343   1.887  1.00  0.00     0.006 A 
HETATM    8  C   UNL     1      62.927   9.501   5.244  1.00  0.00     0.057 A 
HETATM    9  C   UNL     1      61.793  10.719   3.041  1.00  0.00     0.033 A 
HETATM   10  C   UNL     1      62.747  10.879   5.225  1.00  0.00     0.117 A 
HETATM   11  C   UNL     1      62.177  11.498   4.131  1.00  0.00     0.044 A 
HETATM   12  F   UNL     1      63.122  11.612   6.281  1.00  0.00    -0.206 F 
HETATM   13  C   UNL     1      61.110   6.675   0.649  1.00  0.00     0.068 C 
ENDROOT
BRANCH   1  14
HETATM   14  C   UNL     1      63.167   6.454   5.194  1.00  0.00     0.210 C 
HETATM   15  O   UNL     1      64.332   6.225   5.455  1.00  0.00    -0.644 OA
HETATM   16  O   UNL     1      62.200   5.946   5.985  1.00  0.00    -0.644 OA
ENDBRANCH   1  14
TORSDOF 1
ENDMDL
