MODEL 1
REMARK VINA RESULT:      -4.4      0.000      0.000
REMARK  4 active torsions:
REMARK  status: ('A' for Active; 'I' for Inactive)
REMARK    1  A    between atoms: N_1  and  C_3 
REMARK    2  A    between atoms: C_2  and  C_3 
REMARK    3  A    between atoms: C_2  and  C_5 
REMARK    4  A    between atoms: N_4  and  C_5 
ROOT
HETATM    1  C   UNL     1      63.553   7.727   5.558  1.00  0.00     0.245 C 
ENDROOT
BRANCH   1   2
HETATM    2  N   UNL     1      63.154   8.517   4.384  1.00  0.00    -0.070 N 
HETATM    3  C   UNL     1      62.389   7.825   3.366  1.00  0.00     0.235 C 
HETATM    4  C   UNL     1      62.549   8.358   1.944  1.00  0.00     0.028 C 
HETATM    5  C   UNL     1      61.651   9.545   1.626  1.00  0.00     0.002 C 
HETATM    6  C   UNL     1      61.980  10.799   2.419  1.00  0.00     0.002 C 
HETATM    7  C   UNL     1      61.786  10.638   3.922  1.00  0.00     0.028 C 
HETATM    8  C   UNL     1      62.948   9.938   4.627  1.00  0.00     0.235 C 
HETATM    9  H   UNL     1      64.003   8.601   3.825  1.00  0.00     0.279 HD
ENDBRANCH   1   2
BRANCH   1  10
HETATM   10  C   UNL     1      65.033   7.240   5.755  1.00  0.00    -0.000 C 
HETATM   11  C   UNL     1      65.085   6.435   7.079  1.00  0.00     0.018 C 
HETATM   12  C   UNL     1      65.456   6.283   4.623  1.00  0.00     0.018 C 
BRANCH  10  13
HETATM   13  C   UNL     1      66.094   8.371   5.839  1.00  0.00     0.239 C 
BRANCH  13  14
HETATM   14  N   UNL     1      66.868   8.405   7.076  1.00  0.00    -0.079 N 
HETATM   15  H   UNL     1      66.525   7.682   7.711  1.00  0.00     0.274 HD
HETATM   16  H   UNL     1      66.766   9.319   7.516  1.00  0.00     0.274 HD
HETATM   17  H   UNL     1      67.851   8.235   6.867  1.00  0.00     0.274 HD
ENDBRANCH  13  14
ENDBRANCH  10  13
ENDBRANCH   1  10
TORSDOF 4
ENDMDL
MODEL 2
REMARK VINA RESULT:      -3.9      2.408      3.725
REMARK  4 active torsions:
REMARK  status: ('A' for Active; 'I' for Inactive)
REMARK    1  A    between atoms: N_1  and  C_3 
REMARK    2  A    between atoms: C_2  and  C_3 
REMARK    3  A    between atoms: C_2  and  C_5 
REMARK    4  A    between atoms: N_4  and  C_5 
ROOT
HETATM    1  C   UNL     1      65.938   6.957   7.608  1.00  0.00     0.245 C 
ENDROOT
BRANCH   1   2
HETATM    2  N   UNL     1      65.086   7.140   6.424  1.00  0.00    -0.070 N 
HETATM    3  C   UNL     1      63.752   6.578   6.492  1.00  0.00     0.235 C 
HETATM    4  C   UNL     1      63.141   6.161   5.156  1.00  0.00     0.028 C 
HETATM    5  C   UNL     1      62.480   7.303   4.398  1.00  0.00     0.002 C 
HETATM    6  C   UNL     1      63.449   8.374   3.925  1.00  0.00     0.002 C 
HETATM    7  C   UNL     1      64.152   9.105   5.063  1.00  0.00     0.028 C 
HETATM    8  C   UNL     1      65.343   8.344   5.647  1.00  0.00     0.235 C 
HETATM    9  H   UNL     1      65.437   6.466   5.743  1.00  0.00     0.279 HD
ENDBRANCH   1   2
BRANCH   1  10
HETATM   10  C   UNL     1      67.013   5.814   7.678  1.00  0.00    -0.000 C 
HETATM   11  C   UNL     1      67.877   5.909   6.394  1.00  0.00     0.018 C 
HETATM   12  C   UNL     1      67.957   6.016   8.879  1.00  0.00     0.018 C 
BRANCH  10  13
HETATM   13  C   UNL     1      66.439   4.374   7.764  1.00  0.00     0.239 C 
BRANCH  13  14
HETATM   14  N   UNL     1      67.026   3.534   8.803  1.00  0.00    -0.079 N 
HETATM   15  H   UNL     1      67.191   4.094   9.640  1.00  0.00     0.274 HD
HETATM   16  H   UNL     1      67.911   3.150   8.471  1.00  0.00     0.274 HD
HETATM   17  H   UNL     1      66.387   2.771   9.025  1.00  0.00     0.274 HD
ENDBRANCH  13  14
ENDBRANCH  10  13
ENDBRANCH   1  10
TORSDOF 4
ENDMDL
MODEL 3
REMARK VINA RESULT:      -3.9      1.584      5.430
REMARK  4 active torsions:
REMARK  status: ('A' for Active; 'I' for Inactive)
REMARK    1  A    between atoms: N_1  and  C_3 
REMARK    2  A    between atoms: C_2  and  C_3 
REMARK    3  A    between atoms: C_2  and  C_5 
REMARK    4  A    between atoms: N_4  and  C_5 
ROOT
HETATM    1  C   UNL     1      63.083   8.332   5.371  1.00  0.00     0.245 C 
ENDROOT
BRANCH   1   2
HETATM    2  N   UNL     1      64.358   7.617   5.527  1.00  0.00    -0.070 N 
HETATM    3  C   UNL     1      65.565   8.409   5.395  1.00  0.00     0.235 C 
HETATM    4  C   UNL     1      66.795   7.658   4.890  1.00  0.00     0.028 C 
HETATM    5  C   UNL     1      67.556   6.918   5.980  1.00  0.00     0.002 C 
HETATM    6  C   UNL     1      66.781   5.770   6.605  1.00  0.00     0.002 C 
HETATM    7  C   UNL     1      65.518   6.212   7.334  1.00  0.00     0.028 C 
HETATM    8  C   UNL     1      64.324   6.462   6.412  1.00  0.00     0.235 C 
HETATM    9  H   UNL     1      64.482   7.109   4.651  1.00  0.00     0.279 HD
ENDBRANCH   1   2
BRANCH   1  10
HETATM   10  C   UNL     1      62.314   8.349   4.001  1.00  0.00    -0.000 C 
HETATM   11  C   UNL     1      62.064   9.832   3.627  1.00  0.00     0.018 C 
HETATM   12  C   UNL     1      63.172   7.734   2.878  1.00  0.00     0.018 C 
BRANCH  10  13
HETATM   13  C   UNL     1      60.944   7.618   4.004  1.00  0.00     0.239 C 
BRANCH  13  14
HETATM   14  N   UNL     1      59.879   8.295   3.272  1.00  0.00    -0.079 N 
HETATM   15  H   UNL     1      59.692   9.201   3.703  1.00  0.00     0.274 HD
HETATM   16  H   UNL     1      59.033   7.726   3.298  1.00  0.00     0.274 HD
HETATM   17  H   UNL     1      60.166   8.432   2.303  1.00  0.00     0.274 HD
ENDBRANCH  13  14
ENDBRANCH  10  13
ENDBRANCH   1  10
TORSDOF 4
ENDMDL
MODEL 4
REMARK VINA RESULT:      -3.8      0.763      1.845
REMARK  4 active torsions:
REMARK  status: ('A' for Active; 'I' for Inactive)
REMARK    1  A    between atoms: N_1  and  C_3 
REMARK    2  A    between atoms: C_2  and  C_3 
REMARK    3  A    between atoms: C_2  and  C_5 
REMARK    4  A    between atoms: N_4  and  C_5 
ROOT
HETATM    1  C   UNL     1      63.341   7.118   5.016  1.00  0.00     0.245 C 
ENDROOT
BRANCH   1   2
HETATM    2  N   UNL     1      62.672   7.968   4.021  1.00  0.00    -0.070 N 
HETATM    3  C   UNL     1      62.986   9.382   4.060  1.00  0.00     0.235 C 
HETATM    4  C   UNL     1      61.886  10.317   3.562  1.00  0.00     0.028 C 
HETATM    5  C   UNL     1      61.867  10.496   2.051  1.00  0.00     0.002 C 
HETATM    6  C   UNL     1      61.511   9.234   1.283  1.00  0.00     0.002 C 
HETATM    7  C   UNL     1      62.520   8.107   1.463  1.00  0.00     0.028 C 
HETATM    8  C   UNL     1      62.344   7.317   2.761  1.00  0.00     0.235 C 
HETATM    9  H   UNL     1      61.718   8.074   4.367  1.00  0.00     0.279 HD
ENDBRANCH   1   2
BRANCH   1  10
HETATM   10  C   UNL     1      64.901   6.932   5.022  1.00  0.00    -0.000 C 
HETATM   11  C   UNL     1      65.234   5.830   6.059  1.00  0.00     0.018 C 
HETATM   12  C   UNL     1      65.403   6.436   3.651  1.00  0.00     0.018 C 
BRANCH  10  13
HETATM   13  C   UNL     1      65.715   8.201   5.393  1.00  0.00     0.239 C 
BRANCH  13  14
HETATM   14  N   UNL     1      66.262   8.214   6.746  1.00  0.00    -0.079 N 
HETATM   15  H   UNL     1      65.652   8.762   7.353  1.00  0.00     0.274 HD
HETATM   16  H   UNL     1      67.192   8.631   6.733  1.00  0.00     0.274 HD
HETATM   17  H   UNL     1      66.322   7.259   7.097  1.00  0.00     0.274 HD
ENDBRANCH  13  14
ENDBRANCH  10  13
ENDBRANCH   1  10
TORSDOF 4
ENDMDL
MODEL 5
REMARK VINA RESULT:      -3.7      1.704      5.496
REMARK  4 active torsions:
REMARK  status: ('A' for Active; 'I' for Inactive)
REMARK    1  A    between atoms: N_1  and  C_3 
REMARK    2  A    between atoms: C_2  and  C_3 
REMARK    3  A    between atoms: C_2  and  C_5 
REMARK    4  A    between atoms: N_4  and  C_5 
ROOT
HETATM    1  C   UNL     1      63.957   7.268   3.718  1.00  0.00     0.245 C 
ENDROOT
BRANCH   1   2
HETATM    2  N   UNL     1      64.966   7.073   4.769  1.00  0.00    -0.070 N 
HETATM    3  C   UNL     1      64.585   6.233   5.886  1.00  0.00     0.235 C 
HETATM    4  C   UNL     1      65.270   6.548   7.214  1.00  0.00     0.028 C 
HETATM    5  C   UNL     1      66.641   5.904   7.368  1.00  0.00     0.002 C 
HETATM    6  C   UNL     1      67.684   6.433   6.397  1.00  0.00     0.002 C 
HETATM    7  C   UNL     1      67.355   6.152   4.936  1.00  0.00     0.028 C 
HETATM    8  C   UNL     1      66.352   7.131   4.326  1.00  0.00     0.235 C 
HETATM    9  H   UNL     1      64.961   7.944   5.300  1.00  0.00     0.279 HD
ENDBRANCH   1   2
BRANCH   1  10
HETATM   10  C   UNL     1      62.822   8.345   3.859  1.00  0.00    -0.000 C 
HETATM   11  C   UNL     1      61.564   7.624   4.406  1.00  0.00     0.018 C 
HETATM   12  C   UNL     1      63.211   9.426   4.886  1.00  0.00     0.018 C 
BRANCH  10  13
HETATM   13  C   UNL     1      62.428   9.064   2.540  1.00  0.00     0.239 C 
BRANCH  13  14
HETATM   14  N   UNL     1      61.568  10.232   2.704  1.00  0.00    -0.079 N 
HETATM   15  H   UNL     1      61.120  10.451   1.814  1.00  0.00     0.274 HD
HETATM   16  H   UNL     1      62.129  11.028   3.007  1.00  0.00     0.274 HD
HETATM   17  H   UNL     1      60.855  10.033   3.405  1.00  0.00     0.274 HD
ENDBRANCH  13  14
ENDBRANCH  10  13
ENDBRANCH   1  10
TORSDOF 4
ENDMDL
MODEL 6
REMARK VINA RESULT:      -3.7      1.632      2.755
REMARK  4 active torsions:
REMARK  status: ('A' for Active; 'I' for Inactive)
REMARK    1  A    between atoms: N_1  and  C_3 
REMARK    2  A    between atoms: C_2  and  C_3 
REMARK    3  A    between atoms: C_2  and  C_5 
REMARK    4  A    between atoms: N_4  and  C_5 
ROOT
HETATM    1  C   UNL     1      63.738   7.196   3.616  1.00  0.00     0.245 C 
ENDROOT
BRANCH   1   2
HETATM    2  N   UNL     1      62.465   7.526   2.959  1.00  0.00    -0.070 N 
HETATM    3  C   UNL     1      62.549   8.050   1.610  1.00  0.00     0.235 C 
HETATM    4  C   UNL     1      61.414   8.984   1.193  1.00  0.00     0.028 C 
HETATM    5  C   UNL     1      60.172   8.260   0.695  1.00  0.00     0.002 C 
HETATM    6  C   UNL     1      59.464   7.441   1.762  1.00  0.00     0.002 C 
HETATM    7  C   UNL     1      60.307   6.297   2.312  1.00  0.00     0.028 C 
HETATM    8  C   UNL     1      61.321   6.728   3.373  1.00  0.00     0.235 C 
HETATM    9  H   UNL     1      62.173   8.406   3.384  1.00  0.00     0.279 HD
ENDBRANCH   1   2
BRANCH   1  10
HETATM   10  C   UNL     1      64.172   7.885   4.959  1.00  0.00    -0.000 C 
HETATM   11  C   UNL     1      63.523   9.292   4.990  1.00  0.00     0.018 C 
HETATM   12  C   UNL     1      63.635   7.108   6.177  1.00  0.00     0.018 C 
BRANCH  10  13
HETATM   13  C   UNL     1      65.703   8.059   5.147  1.00  0.00     0.239 C 
BRANCH  13  14
HETATM   14  N   UNL     1      66.127   8.402   6.501  1.00  0.00    -0.079 N 
HETATM   15  H   UNL     1      66.175   7.554   7.067  1.00  0.00     0.274 HD
HETATM   16  H   UNL     1      65.455   9.048   6.914  1.00  0.00     0.274 HD
HETATM   17  H   UNL     1      67.046   8.842   6.468  1.00  0.00     0.274 HD
ENDBRANCH  13  14
ENDBRANCH  10  13
ENDBRANCH   1  10
TORSDOF 4
ENDMDL
MODEL 7
REMARK VINA RESULT:      -3.7      2.483      5.560
REMARK  4 active torsions:
REMARK  status: ('A' for Active; 'I' for Inactive)
REMARK    1  A    between atoms: N_1  and  C_3 
REMARK    2  A    between atoms: C_2  and  C_3 
REMARK    3  A    between atoms: C_2  and  C_5 
REMARK    4  A    between atoms: N_4  and  C_5 
ROOT
HETATM    1  C   UNL     1      60.979   6.913   2.449  1.00  0.00     0.245 C 
ENDROOT
BRANCH   1   2
HETATM    2  N   UNL     1      61.852   7.849   3.172  1.00  0.00    -0.070 N 
HETATM    3  C   UNL     1      61.222   9.038   3.712  1.00  0.00     0.235 C 
HETATM    4  C   UNL     1      62.125  10.264   3.838  1.00  0.00     0.028 C 
HETATM    5  C   UNL     1      62.958  10.286   5.111  1.00  0.00     0.002 C 
HETATM    6  C   UNL     1      63.999   9.181   5.188  1.00  0.00     0.002 C 
HETATM    7  C   UNL     1      63.399   7.781   5.219  1.00  0.00     0.028 C 
HETATM    8  C   UNL     1      62.996   7.248   3.843  1.00  0.00     0.235 C 
HETATM    9  H   UNL     1      62.370   8.340   2.443  1.00  0.00     0.279 HD
ENDBRANCH   1   2
BRANCH   1  10
HETATM   10  C   UNL     1      60.580   7.155   0.949  1.00  0.00    -0.000 C 
HETATM   11  C   UNL     1      61.751   7.912   0.272  1.00  0.00     0.018 C 
HETATM   12  C   UNL     1      60.408   5.819   0.201  1.00  0.00     0.018 C 
BRANCH  10  13
HETATM   13  C   UNL     1      59.285   7.986   0.737  1.00  0.00     0.239 C 
BRANCH  13  14
HETATM   14  N   UNL     1      58.297   7.879   1.805  1.00  0.00    -0.079 N 
HETATM   15  H   UNL     1      58.565   8.489   2.578  1.00  0.00     0.274 HD
HETATM   16  H   UNL     1      58.254   6.914   2.133  1.00  0.00     0.274 HD
HETATM   17  H   UNL     1      57.382   8.159   1.452  1.00  0.00     0.274 HD
ENDBRANCH  13  14
ENDBRANCH  10  13
ENDBRANCH   1  10
TORSDOF 4
ENDMDL
MODEL 8
REMARK VINA RESULT:      -3.7      1.776      2.315
REMARK  4 active torsions:
REMARK  status: ('A' for Active; 'I' for Inactive)
REMARK    1  A    between atoms: N_1  and  C_3 
REMARK    2  A    between atoms: C_2  and  C_3 
REMARK    3  A    between atoms: C_2  and  C_5 
REMARK    4  A    between atoms: N_4  and  C_5 
ROOT
HETATM    1  C   UNL     1      65.367   6.574   6.330  1.00  0.00     0.245 C 
ENDROOT
BRANCH   1   2
HETATM    2  N   UNL     1      64.612   7.129   5.197  1.00  0.00    -0.070 N 
HETATM    3  C   UNL     1      63.596   6.275   4.614  1.00  0.00     0.235 C 
HETATM    4  C   UNL     1      63.307   6.509   3.133  1.00  0.00     0.028 C 
HETATM    5  C   UNL     1      62.322   7.639   2.869  1.00  0.00     0.002 C 
HETATM    6  C   UNL     1      62.839   9.014   3.259  1.00  0.00     0.002 C 
HETATM    7  C   UNL     1      63.110   9.161   4.752  1.00  0.00     0.028 C 
HETATM    8  C   UNL     1      64.449   8.575   5.201  1.00  0.00     0.235 C 
HETATM    9  H   UNL     1      65.251   7.070   4.404  1.00  0.00     0.279 HD
ENDBRANCH   1   2
BRANCH   1  10
HETATM   10  C   UNL     1      66.716   5.798   6.116  1.00  0.00    -0.000 C 
HETATM   11  C   UNL     1      66.385   4.283   6.117  1.00  0.00     0.018 C 
HETATM   12  C   UNL     1      67.333   6.129   4.743  1.00  0.00     0.018 C 
BRANCH  10  13
HETATM   13  C   UNL     1      67.802   6.052   7.196  1.00  0.00     0.239 C 
BRANCH  13  14
HETATM   14  N   UNL     1      67.430   7.004   8.238  1.00  0.00    -0.079 N 
HETATM   15  H   UNL     1      67.709   7.944   7.955  1.00  0.00     0.274 HD
HETATM   16  H   UNL     1      67.901   6.758   9.108  1.00  0.00     0.274 HD
HETATM   17  H   UNL     1      66.420   6.977   8.379  1.00  0.00     0.274 HD
ENDBRANCH  13  14
ENDBRANCH  10  13
ENDBRANCH   1  10
TORSDOF 4
ENDMDL
MODEL 9
REMARK VINA RESULT:      -3.6      2.105      5.569
REMARK  4 active torsions:
REMARK  status: ('A' for Active; 'I' for Inactive)
REMARK    1  A    between atoms: N_1  and  C_3 
REMARK    2  A    between atoms: C_2  and  C_3 
REMARK    3  A    between atoms: C_2  and  C_5 
REMARK    4  A    between atoms: N_4  and  C_5 
ROOT
HETATM    1  C   UNL     1      61.419   8.154   3.000  1.00  0.00     0.245 C 
ENDROOT
BRANCH   1   2
HETATM    2  N   UNL     1      62.449   7.638   3.914  1.00  0.00    -0.070 N 
HETATM    3  C   UNL     1      63.452   8.583   4.361  1.00  0.00     0.235 C 
HETATM    4  C   UNL     1      64.815   7.987   4.706  1.00  0.00     0.028 C 
HETATM    5  C   UNL     1      64.902   7.426   6.118  1.00  0.00     0.002 C 
HETATM    6  C   UNL     1      64.013   6.217   6.359  1.00  0.00     0.002 C 
HETATM    7  C   UNL     1      62.526   6.517   6.221  1.00  0.00     0.028 C 
HETATM    8  C   UNL     1      62.029   6.542   4.774  1.00  0.00     0.235 C 
HETATM    9  H   UNL     1      63.081   7.104   3.318  1.00  0.00     0.279 HD
ENDBRANCH   1   2
BRANCH   1  10
HETATM   10  C   UNL     1      61.604   8.104   1.441  1.00  0.00    -0.000 C 
HETATM   11  C   UNL     1      62.174   9.475   0.996  1.00  0.00     0.018 C 
HETATM   12  C   UNL     1      62.635   7.030   1.042  1.00  0.00     0.018 C 
BRANCH  10  13
HETATM   13  C   UNL     1      60.306   7.838   0.631  1.00  0.00     0.239 C 
BRANCH  13  14
HETATM   14  N   UNL     1      59.118   8.532   1.117  1.00  0.00    -0.079 N 
HETATM   15  H   UNL     1      59.130   9.497   0.787  1.00  0.00     0.274 HD
HETATM   16  H   UNL     1      59.112   8.522   2.136  1.00  0.00     0.274 HD
HETATM   17  H   UNL     1      58.283   8.062   0.767  1.00  0.00     0.274 HD
ENDBRANCH  13  14
ENDBRANCH  10  13
ENDBRANCH   1  10
TORSDOF 4
ENDMDL
