MODEL 1
REMARK VINA RESULT:      -4.8      0.000      0.000
REMARK  1 active torsions:
REMARK  status: ('A' for Active; 'I' for Inactive)
REMARK       I    between atoms: C_1  and  N_2 
REMARK    1  A    between atoms: C_1  and  C_5 
ROOT
HETATM    1  N   UNL     1      65.400   6.138   6.573  1.00  0.00    -0.075 N 
HETATM    2  C   UNL     1      63.902   8.256   5.201  1.00  0.00     0.081 C 
HETATM    3  C   UNL     1      66.037   6.872   5.478  1.00  0.00     0.233 C 
HETATM    4  C   UNL     1      63.973   5.965   6.312  1.00  0.00     0.233 C 
HETATM    5  C   UNL     1      65.431   8.262   5.326  1.00  0.00     0.041 C 
HETATM    6  C   UNL     1      63.260   7.314   6.228  1.00  0.00     0.041 C 
HETATM    7  H   UNL     1      65.839   5.221   6.661  1.00  0.00     0.277 HD
HETATM    8  H   UNL     1      65.516   6.669   7.435  1.00  0.00     0.277 HD
ENDROOT
BRANCH   2   9
HETATM    9  C   UNL     1      63.439   7.912   3.779  1.00  0.00     0.224 C 
HETATM   10  N   UNL     1      62.261   8.504   3.318  1.00  0.00    -0.352 N 
HETATM   11  C   UNL     1      61.590   9.640   3.954  1.00  0.00     0.125 C 
HETATM   12  C   UNL     1      61.911   8.341   1.907  1.00  0.00     0.125 C 
HETATM   13  C   UNL     1      62.020  10.931   3.261  1.00  0.00     0.020 C 
HETATM   14  C   UNL     1      61.698  10.861   1.764  1.00  0.00     0.003 C 
HETATM   15  C   UNL     1      62.292   9.601   1.124  1.00  0.00     0.020 C 
HETATM   16  O   UNL     1      64.071   7.114   3.088  1.00  0.00    -0.273 OA
ENDBRANCH   2   9
TORSDOF 1
ENDMDL
MODEL 2
REMARK VINA RESULT:      -4.6      1.903      2.974
REMARK  1 active torsions:
REMARK  status: ('A' for Active; 'I' for Inactive)
REMARK       I    between atoms: C_1  and  N_2 
REMARK    1  A    between atoms: C_1  and  C_5 
ROOT
HETATM    1  N   UNL     1      67.858   7.338   6.446  1.00  0.00    -0.075 N 
HETATM    2  C   UNL     1      65.314   6.956   5.035  1.00  0.00     0.081 C 
HETATM    3  C   UNL     1      66.602   7.512   7.176  1.00  0.00     0.233 C 
HETATM    4  C   UNL     1      67.718   7.797   5.065  1.00  0.00     0.233 C 
HETATM    5  C   UNL     1      65.482   6.699   6.538  1.00  0.00     0.041 C 
HETATM    6  C   UNL     1      66.669   6.978   4.315  1.00  0.00     0.041 C 
HETATM    7  H   UNL     1      68.591   7.879   6.906  1.00  0.00     0.277 HD
HETATM    8  H   UNL     1      68.101   6.348   6.441  1.00  0.00     0.277 HD
ENDROOT
BRANCH   2   9
HETATM    9  C   UNL     1      64.525   8.241   4.752  1.00  0.00     0.224 C 
HETATM   10  N   UNL     1      63.660   8.245   3.656  1.00  0.00    -0.352 N 
HETATM   11  C   UNL     1      63.221   7.051   2.931  1.00  0.00     0.125 C 
HETATM   12  C   UNL     1      62.761   9.387   3.488  1.00  0.00     0.125 C 
HETATM   13  C   UNL     1      61.865   6.603   3.473  1.00  0.00     0.020 C 
HETATM   14  C   UNL     1      60.844   7.739   3.345  1.00  0.00     0.003 C 
HETATM   15  C   UNL     1      61.360   9.030   3.991  1.00  0.00     0.020 C 
HETATM   16  O   UNL     1      64.681   9.241   5.452  1.00  0.00    -0.273 OA
ENDBRANCH   2   9
TORSDOF 1
ENDMDL
MODEL 3
REMARK VINA RESULT:      -4.6      2.095      5.771
REMARK  1 active torsions:
REMARK  status: ('A' for Active; 'I' for Inactive)
REMARK       I    between atoms: C_1  and  N_2 
REMARK    1  A    between atoms: C_1  and  C_5 
ROOT
HETATM    1  N   UNL     1      62.202   9.003   3.862  1.00  0.00    -0.075 N 
HETATM    2  C   UNL     1      64.691   7.818   4.865  1.00  0.00     0.081 C 
HETATM    3  C   UNL     1      62.824   9.557   5.065  1.00  0.00     0.233 C 
HETATM    4  C   UNL     1      62.390   7.554   3.807  1.00  0.00     0.233 C 
HETATM    5  C   UNL     1      64.325   9.293   5.075  1.00  0.00     0.041 C 
HETATM    6  C   UNL     1      63.872   7.193   3.728  1.00  0.00     0.041 C 
HETATM    7  H   UNL     1      61.203   9.211   3.876  1.00  0.00     0.277 HD
HETATM    8  H   UNL     1      62.638   9.423   3.042  1.00  0.00     0.277 HD
ENDROOT
BRANCH   2   9
HETATM    9  C   UNL     1      64.551   6.997   6.154  1.00  0.00     0.224 C 
HETATM   10  N   UNL     1      65.464   5.962   6.367  1.00  0.00    -0.352 N 
HETATM   11  C   UNL     1      66.710   5.776   5.623  1.00  0.00     0.125 C 
HETATM   12  C   UNL     1      65.465   5.300   7.672  1.00  0.00     0.125 C 
HETATM   13  C   UNL     1      67.864   6.397   6.408  1.00  0.00     0.020 C 
HETATM   14  C   UNL     1      67.950   5.770   7.804  1.00  0.00     0.003 C 
HETATM   15  C   UNL     1      66.606   5.847   8.536  1.00  0.00     0.020 C 
HETATM   16  O   UNL     1      63.642   7.228   6.950  1.00  0.00    -0.273 OA
ENDBRANCH   2   9
TORSDOF 1
ENDMDL
MODEL 4
REMARK VINA RESULT:      -4.5      1.159      1.444
REMARK  1 active torsions:
REMARK  status: ('A' for Active; 'I' for Inactive)
REMARK       I    between atoms: C_1  and  N_2 
REMARK    1  A    between atoms: C_1  and  C_5 
ROOT
HETATM    1  N   UNL     1      65.662   7.451   6.739  1.00  0.00    -0.075 N 
HETATM    2  C   UNL     1      63.242   7.943   5.153  1.00  0.00     0.081 C 
HETATM    3  C   UNL     1      65.783   8.090   5.428  1.00  0.00     0.233 C 
HETATM    4  C   UNL     1      64.586   6.462   6.731  1.00  0.00     0.233 C 
HETATM    5  C   UNL     1      64.498   8.819   5.054  1.00  0.00     0.041 C 
HETATM    6  C   UNL     1      63.236   7.118   6.447  1.00  0.00     0.041 C 
HETATM    7  H   UNL     1      66.541   6.988   6.968  1.00  0.00     0.277 HD
HETATM    8  H   UNL     1      65.448   8.165   7.434  1.00  0.00     0.277 HD
ENDROOT
BRANCH   2   9
HETATM    9  C   UNL     1      63.070   7.038   3.927  1.00  0.00     0.224 C 
HETATM   10  N   UNL     1      62.044   7.346   3.031  1.00  0.00    -0.352 N 
HETATM   11  C   UNL     1      61.310   8.612   3.000  1.00  0.00     0.125 C 
HETATM   12  C   UNL     1      61.988   6.614   1.765  1.00  0.00     0.125 C 
HETATM   13  C   UNL     1      61.937   9.532   1.954  1.00  0.00     0.020 C 
HETATM   14  C   UNL     1      61.931   8.852   0.581  1.00  0.00     0.003 C 
HETATM   15  C   UNL     1      62.584   7.466   0.641  1.00  0.00     0.020 C 
HETATM   16  O   UNL     1      63.793   6.055   3.764  1.00  0.00    -0.273 OA
ENDBRANCH   2   9
TORSDOF 1
ENDMDL
MODEL 5
REMARK VINA RESULT:      -4.5      1.653      5.127
REMARK  1 active torsions:
REMARK  status: ('A' for Active; 'I' for Inactive)
REMARK       I    between atoms: C_1  and  N_2 
REMARK    1  A    between atoms: C_1  and  C_5 
ROOT
HETATM    1  N   UNL     1      61.047   8.968   3.581  1.00  0.00    -0.075 N 
HETATM    2  C   UNL     1      63.375   8.137   5.163  1.00  0.00     0.081 C 
HETATM    3  C   UNL     1      61.325   7.541   3.751  1.00  0.00     0.233 C 
HETATM    4  C   UNL     1      62.294   9.727   3.492  1.00  0.00     0.233 C 
HETATM    5  C   UNL     1      62.106   7.285   5.035  1.00  0.00     0.041 C 
HETATM    6  C   UNL     1      63.110   9.599   4.777  1.00  0.00     0.041 C 
HETATM    7  H   UNL     1      60.510   9.105   2.724  1.00  0.00     0.277 HD
HETATM    8  H   UNL     1      60.517   9.298   4.386  1.00  0.00     0.277 HD
ENDROOT
BRANCH   2   9
HETATM    9  C   UNL     1      64.544   7.561   4.353  1.00  0.00     0.224 C 
HETATM   10  N   UNL     1      65.834   7.739   4.857  1.00  0.00    -0.352 N 
HETATM   11  C   UNL     1      66.149   8.164   6.222  1.00  0.00     0.125 C 
HETATM   12  C   UNL     1      66.935   7.033   4.202  1.00  0.00     0.125 C 
HETATM   13  C   UNL     1      66.430   6.933   7.081  1.00  0.00     0.020 C 
HETATM   14  C   UNL     1      67.575   6.116   6.474  1.00  0.00     0.003 C 
HETATM   15  C   UNL     1      67.305   5.781   5.003  1.00  0.00     0.020 C 
HETATM   16  O   UNL     1      64.344   6.994   3.279  1.00  0.00    -0.273 OA
ENDBRANCH   2   9
TORSDOF 1
ENDMDL
MODEL 6
REMARK VINA RESULT:      -4.4      2.405      3.471
REMARK  1 active torsions:
REMARK  status: ('A' for Active; 'I' for Inactive)
REMARK       I    between atoms: C_1  and  N_2 
REMARK    1  A    between atoms: C_1  and  C_5 
ROOT
HETATM    1  N   UNL     1      61.244   4.235   6.902  1.00  0.00    -0.075 N 
HETATM    2  C   UNL     1      61.983   6.352   5.010  1.00  0.00     0.081 C 
HETATM    3  C   UNL     1      60.510   5.501   6.922  1.00  0.00     0.233 C 
HETATM    4  C   UNL     1      62.652   4.463   6.582  1.00  0.00     0.233 C 
HETATM    5  C   UNL     1      60.561   6.184   5.560  1.00  0.00     0.041 C 
HETATM    6  C   UNL     1      62.809   5.071   5.189  1.00  0.00     0.041 C 
HETATM    7  H   UNL     1      61.176   3.795   7.820  1.00  0.00     0.277 HD
HETATM    8  H   UNL     1      60.837   3.630   6.190  1.00  0.00     0.277 HD
ENDROOT
BRANCH   2   9
HETATM    9  C   UNL     1      62.704   7.558   5.627  1.00  0.00     0.224 C 
HETATM   10  N   UNL     1      63.198   8.534   4.759  1.00  0.00    -0.352 N 
HETATM   11  C   UNL     1      62.838   8.658   3.346  1.00  0.00     0.125 C 
HETATM   12  C   UNL     1      63.713   9.776   5.337  1.00  0.00     0.125 C 
HETATM   13  C   UNL     1      61.718   9.686   3.199  1.00  0.00     0.020 C 
HETATM   14  C   UNL     1      62.158  11.034   3.782  1.00  0.00     0.003 C 
HETATM   15  C   UNL     1      62.660  10.882   5.223  1.00  0.00     0.020 C 
HETATM   16  O   UNL     1      62.867   7.636   6.844  1.00  0.00    -0.273 OA
ENDBRANCH   2   9
TORSDOF 1
ENDMDL
MODEL 7
REMARK VINA RESULT:      -4.1      1.599      5.066
REMARK  1 active torsions:
REMARK  status: ('A' for Active; 'I' for Inactive)
REMARK       I    between atoms: C_1  and  N_2 
REMARK    1  A    between atoms: C_1  and  C_5 
ROOT
HETATM    1  N   UNL     1      59.654   8.270   1.462  1.00  0.00    -0.075 N 
HETATM    2  C   UNL     1      62.193   8.826   2.823  1.00  0.00     0.081 C 
HETATM    3  C   UNL     1      59.927   7.639   2.754  1.00  0.00     0.233 C 
HETATM    4  C   UNL     1      60.883   8.395   0.682  1.00  0.00     0.233 C 
HETATM    5  C   UNL     1      60.903   8.473   3.575  1.00  0.00     0.041 C 
HETATM    6  C   UNL     1      61.898   9.290   1.390  1.00  0.00     0.041 C 
HETATM    7  H   UNL     1      58.985   7.699   0.946  1.00  0.00     0.277 HD
HETATM    8  H   UNL     1      59.271   9.200   1.626  1.00  0.00     0.277 HD
ENDROOT
BRANCH   2   9
HETATM    9  C   UNL     1      63.200   7.669   2.825  1.00  0.00     0.224 C 
HETATM   10  N   UNL     1      64.161   7.645   3.838  1.00  0.00    -0.352 N 
HETATM   11  C   UNL     1      64.116   8.456   5.056  1.00  0.00     0.125 C 
HETATM   12  C   UNL     1      65.001   6.454   3.966  1.00  0.00     0.125 C 
HETATM   13  C   UNL     1      63.505   7.631   6.187  1.00  0.00     0.020 C 
HETATM   14  C   UNL     1      64.315   6.348   6.402  1.00  0.00     0.003 C 
HETATM   15  C   UNL     1      64.476   5.563   5.096  1.00  0.00     0.020 C 
HETATM   16  O   UNL     1      63.176   6.813   1.940  1.00  0.00    -0.273 OA
ENDBRANCH   2   9
TORSDOF 1
ENDMDL
MODEL 8
REMARK VINA RESULT:      -4.0      2.904      5.261
REMARK  1 active torsions:
REMARK  status: ('A' for Active; 'I' for Inactive)
REMARK       I    between atoms: C_1  and  N_2 
REMARK    1  A    between atoms: C_1  and  C_5 
ROOT
HETATM    1  N   UNL     1      60.420   6.248   5.248  1.00  0.00    -0.075 N 
HETATM    2  C   UNL     1      63.249   5.524   5.536  1.00  0.00     0.081 C 
HETATM    3  C   UNL     1      61.437   7.049   4.566  1.00  0.00     0.233 C 
HETATM    4  C   UNL     1      60.920   5.773   6.537  1.00  0.00     0.233 C 
HETATM    5  C   UNL     1      62.689   6.225   4.292  1.00  0.00     0.041 C 
HETATM    6  C   UNL     1      62.133   4.862   6.356  1.00  0.00     0.041 C 
HETATM    7  H   UNL     1      59.590   6.822   5.401  1.00  0.00     0.277 HD
HETATM    8  H   UNL     1      60.191   5.444   4.666  1.00  0.00     0.277 HD
ENDROOT
BRANCH   2   9
HETATM    9  C   UNL     1      64.080   6.471   6.410  1.00  0.00     0.224 C 
HETATM   10  N   UNL     1      65.450   6.221   6.520  1.00  0.00    -0.352 N 
HETATM   11  C   UNL     1      66.209   5.319   5.652  1.00  0.00     0.125 C 
HETATM   12  C   UNL     1      66.284   7.220   7.187  1.00  0.00     0.125 C 
HETATM   13  C   UNL     1      66.868   6.129   4.537  1.00  0.00     0.020 C 
HETATM   14  C   UNL     1      67.769   7.215   5.135  1.00  0.00     0.003 C 
HETATM   15  C   UNL     1      67.006   8.080   6.146  1.00  0.00     0.020 C 
HETATM   16  O   UNL     1      63.545   7.398   7.018  1.00  0.00    -0.273 OA
ENDBRANCH   2   9
TORSDOF 1
ENDMDL
MODEL 9
REMARK VINA RESULT:      -3.9      1.739      5.188
REMARK  1 active torsions:
REMARK  status: ('A' for Active; 'I' for Inactive)
REMARK       I    between atoms: C_1  and  N_2 
REMARK    1  A    between atoms: C_1  and  C_5 
ROOT
HETATM    1  N   UNL     1      60.686   8.423   2.319  1.00  0.00    -0.075 N 
HETATM    2  C   UNL     1      63.345   8.102   3.518  1.00  0.00     0.081 C 
HETATM    3  C   UNL     1      60.967   9.044   3.614  1.00  0.00     0.233 C 
HETATM    4  C   UNL     1      61.387   7.146   2.200  1.00  0.00     0.233 C 
HETATM    5  C   UNL     1      62.457   9.327   3.773  1.00  0.00     0.041 C 
HETATM    6  C   UNL     1      62.901   7.339   2.263  1.00  0.00     0.041 C 
HETATM    7  H   UNL     1      59.682   8.263   2.236  1.00  0.00     0.277 HD
HETATM    8  H   UNL     1      61.007   9.045   1.579  1.00  0.00     0.277 HD
ENDROOT
BRANCH   2   9
HETATM    9  C   UNL     1      63.406   7.167   4.732  1.00  0.00     0.224 C 
HETATM   10  N   UNL     1      64.601   6.486   4.969  1.00  0.00    -0.352 N 
HETATM   11  C   UNL     1      65.885   6.801   4.339  1.00  0.00     0.125 C 
HETATM   12  C   UNL     1      64.739   5.745   6.223  1.00  0.00     0.125 C 
HETATM   13  C   UNL     1      66.696   7.699   5.270  1.00  0.00     0.020 C 
HETATM   14  C   UNL     1      66.895   7.012   6.626  1.00  0.00     0.003 C 
HETATM   15  C   UNL     1      65.558   6.563   7.226  1.00  0.00     0.020 C 
HETATM   16  O   UNL     1      62.419   7.004   5.449  1.00  0.00    -0.273 OA
ENDBRANCH   2   9
TORSDOF 1
ENDMDL
