MODEL 1
REMARK VINA RESULT:      -5.8      0.000      0.000
REMARK  2 active torsions:
REMARK  status: ('A' for Active; 'I' for Inactive)
REMARK    1  A    between atoms: C_1  and  C_7 
REMARK    2  A    between atoms: C_4  and  C_8 
ROOT
HETATM    1  C   UNK     1      65.181   6.466   6.958  1.00  0.00     0.117 A 
HETATM    2  N   UNK     1      64.758   7.696   6.447  1.00  0.00    -0.344 N 
ATOM      3  HN  UNK     1      65.073   8.604   6.789  1.00  0.00     0.167 HD
HETATM    4  C   UNK     1      63.896   7.523   5.465  1.00  0.00     0.085 A 
HETATM    5  S   UNK     1      63.601   5.875   5.051  1.00  0.00    -0.081 SA
HETATM    6  C   UNK     1      64.650   5.372   6.301  1.00  0.00     0.088 A 
ENDROOT
BRANCH   4   7
HETATM    7  C   UNK     1      63.244   8.620   4.730  1.00  0.00    -0.001 A 
HETATM    8  C   UNK     1      62.873   8.426   3.390  1.00  0.00     0.038 A 
HETATM    9  C   UNK     1      62.260   9.453   2.671  1.00  0.00     0.035 A 
HETATM   10 CL   UNK     1      61.796   9.194   1.034  1.00  0.00    -0.084 Cl
HETATM   11  C   UNK     1      62.019  10.690   3.266  1.00  0.00     0.024 A 
HETATM   12  C   UNK     1      62.393  10.902   4.589  1.00  0.00     0.003 A 
HETATM   13  C   UNK     1      63.002   9.875   5.316  1.00  0.00     0.014 A 
ENDBRANCH   4   7
BRANCH   1  14
HETATM   14  C   UNK     1      66.097   6.349   8.087  1.00  0.00     0.227 C 
HETATM   15  O   UNK     1      66.907   7.201   8.430  1.00  0.00    -0.643 OA
HETATM   16  O   UNK     1      66.014   5.185   8.771  1.00  0.00    -0.643 OA
ENDBRANCH   1  14
TORSDOF 2
ENDMDL
MODEL 2
REMARK VINA RESULT:      -5.8      3.961      6.086
REMARK  2 active torsions:
REMARK  status: ('A' for Active; 'I' for Inactive)
REMARK    1  A    between atoms: C_1  and  C_7 
REMARK    2  A    between atoms: C_4  and  C_8 
ROOT
HETATM    1  C   UNK     1      63.380   9.634   4.968  1.00  0.00     0.117 A 
HETATM    2  N   UNK     1      64.392   9.008   5.702  1.00  0.00    -0.344 N 
ATOM      3  HN  UNK     1      64.806   9.385   6.554  1.00  0.00     0.167 HD
HETATM    4  C   UNK     1      64.738   7.866   5.143  1.00  0.00     0.085 A 
HETATM    5  S   UNK     1      63.818   7.443   3.746  1.00  0.00    -0.081 SA
HETATM    6  C   UNK     1      62.948   8.907   3.874  1.00  0.00     0.088 A 
ENDROOT
BRANCH   4   7
HETATM    7  C   UNK     1      65.791   6.975   5.657  1.00  0.00    -0.001 A 
HETATM    8  C   UNK     1      66.154   7.047   7.011  1.00  0.00     0.038 A 
HETATM    9  C   UNK     1      67.154   6.218   7.520  1.00  0.00     0.035 A 
HETATM   10 CL   UNK     1      67.576   6.306   9.186  1.00  0.00    -0.084 Cl
HETATM   11  C   UNK     1      67.818   5.316   6.690  1.00  0.00     0.024 A 
HETATM   12  C   UNK     1      67.480   5.242   5.343  1.00  0.00     0.003 A 
HETATM   13  C   UNK     1      66.474   6.066   4.830  1.00  0.00     0.014 A 
ENDBRANCH   4   7
BRANCH   1  14
HETATM   14  C   UNK     1      62.835  10.940   5.322  1.00  0.00     0.227 C 
HETATM   15  O   UNK     1      62.090  11.608   4.615  1.00  0.00    -0.643 OA
HETATM   16  O   UNK     1      63.220  11.411   6.530  1.00  0.00    -0.643 OA
ENDBRANCH   1  14
TORSDOF 2
ENDMDL
MODEL 3
REMARK VINA RESULT:      -5.5      1.806      2.420
REMARK  2 active torsions:
REMARK  status: ('A' for Active; 'I' for Inactive)
REMARK    1  A    between atoms: C_1  and  C_7 
REMARK    2  A    between atoms: C_4  and  C_8 
ROOT
HETATM    1  C   UNK     1      66.364   6.706   7.207  1.00  0.00     0.117 A 
HETATM    2  N   UNK     1      65.160   7.206   6.702  1.00  0.00    -0.344 N 
ATOM      3  HN  UNK     1      64.276   7.208   7.211  1.00  0.00     0.167 HD
HETATM    4  C   UNK     1      65.323   7.674   5.481  1.00  0.00     0.085 A 
HETATM    5  S   UNK     1      66.944   7.607   4.897  1.00  0.00    -0.081 SA
HETATM    6  C   UNK     1      67.438   6.855   6.349  1.00  0.00     0.088 A 
ENDROOT
BRANCH   4   7
HETATM    7  C   UNK     1      64.244   8.249   4.662  1.00  0.00    -0.001 A 
HETATM    8  C   UNK     1      63.743   9.522   4.977  1.00  0.00     0.038 A 
HETATM    9  C   UNK     1      62.716  10.086   4.219  1.00  0.00     0.035 A 
HETATM   10 CL   UNK     1      62.125  11.655   4.607  1.00  0.00    -0.084 Cl
HETATM   11  C   UNK     1      62.161   9.390   3.147  1.00  0.00     0.024 A 
HETATM   12  C   UNK     1      62.636   8.121   2.830  1.00  0.00     0.003 A 
HETATM   13  C   UNK     1      63.670   7.555   3.582  1.00  0.00     0.014 A 
ENDBRANCH   4   7
BRANCH   1  14
HETATM   14  C   UNK     1      66.474   6.077   8.518  1.00  0.00     0.227 C 
HETATM   15  O   UNK     1      65.942   5.022   8.842  1.00  0.00    -0.643 OA
HETATM   16  O   UNK     1      67.225   6.756   9.415  1.00  0.00    -0.643 OA
ENDBRANCH   1  14
TORSDOF 2
ENDMDL
MODEL 4
REMARK VINA RESULT:      -4.9      1.352      1.978
REMARK  2 active torsions:
REMARK  status: ('A' for Active; 'I' for Inactive)
REMARK    1  A    between atoms: C_1  and  C_7 
REMARK    2  A    between atoms: C_4  and  C_8 
ROOT
HETATM    1  C   UNK     1      65.355   6.354   7.220  1.00  0.00     0.117 A 
HETATM    2  N   UNK     1      64.802   7.462   6.574  1.00  0.00    -0.344 N 
ATOM      3  HN  UNK     1      64.863   8.421   6.915  1.00  0.00     0.167 HD
HETATM    4  C   UNK     1      64.189   7.099   5.464  1.00  0.00     0.085 A 
HETATM    5  S   UNK     1      64.306   5.418   5.097  1.00  0.00    -0.081 SA
HETATM    6  C   UNK     1      65.181   5.162   6.541  1.00  0.00     0.088 A 
ENDROOT
BRANCH   4   7
HETATM    7  C   UNK     1      63.484   8.026   4.564  1.00  0.00    -0.001 A 
HETATM    8  C   UNK     1      63.184   9.324   5.008  1.00  0.00     0.038 A 
HETATM    9  C   UNK     1      62.511  10.218   4.175  1.00  0.00     0.035 A 
HETATM   10 CL   UNK     1      62.165  11.811   4.727  1.00  0.00    -0.084 Cl
HETATM   11  C   UNK     1      62.113   9.834   2.896  1.00  0.00     0.024 A 
HETATM   12  C   UNK     1      62.390   8.547   2.446  1.00  0.00     0.003 A 
HETATM   13  C   UNK     1      63.070   7.649   3.274  1.00  0.00     0.014 A 
ENDBRANCH   4   7
BRANCH   1  14
HETATM   14  C   UNK     1      66.049   6.446   8.500  1.00  0.00     0.227 C 
HETATM   15  O   UNK     1      65.599   6.069   9.575  1.00  0.00    -0.643 OA
HETATM   16  O   UNK     1      67.277   7.010   8.444  1.00  0.00    -0.643 OA
ENDBRANCH   1  14
TORSDOF 2
ENDMDL
MODEL 5
REMARK VINA RESULT:      -4.9      1.632      2.318
REMARK  2 active torsions:
REMARK  status: ('A' for Active; 'I' for Inactive)
REMARK    1  A    between atoms: C_1  and  C_7 
REMARK    2  A    between atoms: C_4  and  C_8 
ROOT
HETATM    1  C   UNK     1      65.146   6.517   5.735  1.00  0.00     0.117 A 
HETATM    2  N   UNK     1      64.618   7.506   4.901  1.00  0.00    -0.344 N 
ATOM      3  HN  UNK     1      64.791   8.505   5.007  1.00  0.00     0.167 HD
HETATM    4  C   UNK     1      63.866   6.971   3.960  1.00  0.00     0.085 A 
HETATM    5  S   UNK     1      63.809   5.248   3.979  1.00  0.00    -0.081 SA
HETATM    6  C   UNK     1      64.808   5.229   5.365  1.00  0.00     0.088 A 
ENDROOT
BRANCH   4   7
HETATM    7  C   UNK     1      63.145   7.743   2.934  1.00  0.00    -0.001 A 
HETATM    8  C   UNK     1      62.808   9.081   3.190  1.00  0.00     0.038 A 
HETATM    9  C   UNK     1      62.120   9.832   2.235  1.00  0.00     0.035 A 
HETATM   10 CL   UNK     1      61.728  11.477   2.556  1.00  0.00    -0.084 Cl
HETATM   11  C   UNK     1      61.744   9.261   1.020  1.00  0.00     0.024 A 
HETATM   12  C   UNK     1      62.059   7.932   0.758  1.00  0.00     0.003 A 
HETATM   13  C   UNK     1      62.754   7.178   1.708  1.00  0.00     0.014 A 
ENDBRANCH   4   7
BRANCH   1  14
HETATM   14  C   UNK     1      65.976   6.819   6.897  1.00  0.00     0.227 C 
HETATM   15  O   UNK     1      67.189   6.989   6.872  1.00  0.00    -0.643 OA
HETATM   16  O   UNK     1      65.308   6.895   8.071  1.00  0.00    -0.643 OA
ENDBRANCH   1  14
TORSDOF 2
ENDMDL
MODEL 6
REMARK VINA RESULT:      -4.8      1.751      1.796
REMARK  2 active torsions:
REMARK  status: ('A' for Active; 'I' for Inactive)
REMARK    1  A    between atoms: C_1  and  C_7 
REMARK    2  A    between atoms: C_4  and  C_8 
ROOT
HETATM    1  C   UNK     1      65.761   5.928   5.546  1.00  0.00     0.117 A 
HETATM    2  N   UNK     1      65.325   6.960   4.711  1.00  0.00    -0.344 N 
ATOM      3  HN  UNK     1      65.897   7.403   3.992  1.00  0.00     0.167 HD
HETATM    4  C   UNK     1      64.076   7.284   4.980  1.00  0.00     0.085 A 
HETATM    5  S   UNK     1      63.331   6.319   6.199  1.00  0.00    -0.081 SA
HETATM    6  C   UNK     1      64.791   5.458   6.411  1.00  0.00     0.088 A 
ENDROOT
BRANCH   4   7
HETATM    7  C   UNK     1      63.329   8.351   4.293  1.00  0.00    -0.001 A 
HETATM    8  C   UNK     1      63.024   8.211   2.931  1.00  0.00     0.038 A 
HETATM    9  C   UNK     1      62.322   9.211   2.257  1.00  0.00     0.035 A 
HETATM   10 CL   UNK     1      61.940   9.017   0.590  1.00  0.00    -0.084 Cl
HETATM   11  C   UNK     1      61.925  10.370   2.921  1.00  0.00     0.024 A 
HETATM   12  C   UNK     1      62.232  10.531   4.268  1.00  0.00     0.003 A 
HETATM   13  C   UNK     1      62.930   9.528   4.950  1.00  0.00     0.014 A 
ENDBRANCH   4   7
BRANCH   1  14
HETATM   14  C   UNK     1      67.120   5.399   5.510  1.00  0.00     0.227 C 
HETATM   15  O   UNK     1      67.950   5.526   6.402  1.00  0.00    -0.643 OA
HETATM   16  O   UNK     1      67.443   4.733   4.378  1.00  0.00    -0.643 OA
ENDBRANCH   1  14
TORSDOF 2
ENDMDL
MODEL 7
REMARK VINA RESULT:      -4.8      5.190      6.303
REMARK  2 active torsions:
REMARK  status: ('A' for Active; 'I' for Inactive)
REMARK    1  A    between atoms: C_1  and  C_7 
REMARK    2  A    between atoms: C_4  and  C_8 
ROOT
HETATM    1  C   UNK     1      61.782   9.742   3.237  1.00  0.00     0.117 A 
HETATM    2  N   UNK     1      60.548   9.153   3.527  1.00  0.00    -0.344 N 
ATOM      3  HN  UNK     1      59.665   9.659   3.586  1.00  0.00     0.167 HD
HETATM    4  C   UNK     1      60.682   7.855   3.714  1.00  0.00     0.085 A 
HETATM    5  S   UNK     1      62.283   7.257   3.482  1.00  0.00    -0.081 SA
HETATM    6  C   UNK     1      62.831   8.844   3.167  1.00  0.00     0.088 A 
ENDROOT
BRANCH   4   7
HETATM    7  C   UNK     1      59.575   6.948   4.058  1.00  0.00    -0.001 A 
HETATM    8  C   UNK     1      58.311   7.154   3.484  1.00  0.00     0.038 A 
HETATM    9  C   UNK     1      57.244   6.311   3.800  1.00  0.00     0.035 A 
HETATM   10 CL   UNK     1      55.705   6.567   3.075  1.00  0.00    -0.084 Cl
HETATM   11  C   UNK     1      57.413   5.261   4.700  1.00  0.00     0.024 A 
HETATM   12  C   UNK     1      58.656   5.051   5.288  1.00  0.00     0.003 A 
HETATM   13  C   UNK     1      59.729   5.889   4.970  1.00  0.00     0.014 A 
ENDBRANCH   4   7
BRANCH   1  14
HETATM   14  C   UNK     1      61.948  11.177   3.034  1.00  0.00     0.227 C 
HETATM   15  O   UNK     1      62.028  11.730   1.944  1.00  0.00    -0.643 OA
HETATM   16  O   UNK     1      62.026  11.909   4.169  1.00  0.00    -0.643 OA
ENDBRANCH   1  14
TORSDOF 2
ENDMDL
MODEL 8
REMARK VINA RESULT:      -4.6      5.438      6.796
REMARK  2 active torsions:
REMARK  status: ('A' for Active; 'I' for Inactive)
REMARK    1  A    between atoms: C_1  and  C_7 
REMARK    2  A    between atoms: C_4  and  C_8 
ROOT
HETATM    1  C   UNK     1      58.756   7.556   1.867  1.00  0.00     0.117 A 
HETATM    2  N   UNK     1      59.645   7.741   2.929  1.00  0.00    -0.344 N 
ATOM      3  HN  UNK     1      59.411   7.597   3.911  1.00  0.00     0.167 HD
HETATM    4  C   UNK     1      60.826   8.128   2.489  1.00  0.00     0.085 A 
HETATM    5  S   UNK     1      60.956   8.221   0.772  1.00  0.00    -0.081 SA
HETATM    6  C   UNK     1      59.316   7.769   0.621  1.00  0.00     0.088 A 
ENDROOT
BRANCH   4   7
HETATM    7  C   UNK     1      61.977   8.430   3.356  1.00  0.00    -0.001 A 
HETATM    8  C   UNK     1      61.970   9.602   4.128  1.00  0.00     0.038 A 
HETATM    9  C   UNK     1      63.052   9.913   4.952  1.00  0.00     0.035 A 
HETATM   10 CL   UNK     1      63.021  11.346   5.905  1.00  0.00    -0.084 Cl
HETATM   11  C   UNK     1      64.163   9.073   5.011  1.00  0.00     0.024 A 
HETATM   12  C   UNK     1      64.191   7.915   4.241  1.00  0.00     0.003 A 
HETATM   13  C   UNK     1      63.107   7.596   3.419  1.00  0.00     0.014 A 
ENDBRANCH   4   7
BRANCH   1  14
HETATM   14  C   UNK     1      57.360   7.179   2.058  1.00  0.00     0.227 C 
HETATM   15  O   UNK     1      56.844   6.904   3.134  1.00  0.00    -0.643 OA
HETATM   16  O   UNK     1      56.622   7.132   0.925  1.00  0.00    -0.643 OA
ENDBRANCH   1  14
TORSDOF 2
ENDMDL
MODEL 9
REMARK VINA RESULT:      -4.6      1.988      2.802
REMARK  2 active torsions:
REMARK  status: ('A' for Active; 'I' for Inactive)
REMARK    1  A    between atoms: C_1  and  C_7 
REMARK    2  A    between atoms: C_4  and  C_8 
ROOT
HETATM    1  C   UNK     1      64.311   5.538   5.991  1.00  0.00     0.117 A 
HETATM    2  N   UNK     1      63.493   5.968   4.943  1.00  0.00    -0.344 N 
ATOM      3  HN  UNK     1      62.723   5.427   4.550  1.00  0.00     0.167 HD
HETATM    4  C   UNK     1      63.852   7.167   4.530  1.00  0.00     0.085 A 
HETATM    5  S   UNK     1      65.145   7.877   5.425  1.00  0.00    -0.081 SA
HETATM    6  C   UNK     1      65.259   6.466   6.381  1.00  0.00     0.088 A 
ENDROOT
BRANCH   4   7
HETATM    7  C   UNK     1      63.206   7.893   3.425  1.00  0.00    -0.001 A 
HETATM    8  C   UNK     1      62.820   9.230   3.610  1.00  0.00     0.038 A 
HETATM    9  C   UNK     1      62.200   9.937   2.580  1.00  0.00     0.035 A 
HETATM   10 CL   UNK     1      61.749  11.581   2.817  1.00  0.00    -0.084 Cl
HETATM   11  C   UNK     1      61.940   9.324   1.355  1.00  0.00     0.024 A 
HETATM   12  C   UNK     1      62.303   7.995   1.160  1.00  0.00     0.003 A 
HETATM   13  C   UNK     1      62.931   7.285   2.187  1.00  0.00     0.014 A 
ENDBRANCH   4   7
BRANCH   1  14
HETATM   14  C   UNK     1      64.180   4.225   6.613  1.00  0.00     0.227 C 
HETATM   15  O   UNK     1      64.710   3.886   7.663  1.00  0.00    -0.643 OA
HETATM   16  O   UNK     1      63.410   3.345   5.931  1.00  0.00    -0.643 OA
ENDBRANCH   1  14
TORSDOF 2
ENDMDL
