MODEL 1
REMARK VINA RESULT:      -4.8      0.000      0.000
REMARK  2 active torsions:
REMARK  status: ('A' for Active; 'I' for Inactive)
REMARK    1  A    between atoms: C_1  and  C_3 
REMARK    2  A    between atoms: C_8  and  N_9 
ROOT
HETATM    1  C   UNL     1      63.211   9.139   4.460  1.00  0.00    -0.017 A 
HETATM    2  C   UNL     1      62.872   8.766   3.145  1.00  0.00     0.041 A 
HETATM    3  C   UNL     1      62.113   9.600   2.317  1.00  0.00     0.026 A 
HETATM    4  C   UNL     1      62.797  10.399   4.915  1.00  0.00     0.013 A 
HETATM    5  C   UNL     1      62.086  11.261   4.080  1.00  0.00     0.003 A 
HETATM    6  C   UNL     1      61.768  10.870   2.780  1.00  0.00     0.029 A 
ENDROOT
BRANCH   1   7
HETATM    7  C   UNL     1      64.013   8.228   5.299  1.00  0.00     0.015 A 
HETATM    8  S   UNL     1      63.275   6.941   6.169  1.00  0.00    -0.101 SA
HETATM    9  C   UNL     1      64.766   6.418   6.815  1.00  0.00     0.050 A 
HETATM   10  C   UNL     1      65.817   7.187   6.374  1.00  0.00     0.008 A 
HETATM   11  C   UNL     1      65.384   8.226   5.502  1.00  0.00     0.020 A 
ENDBRANCH   1   7
BRANCH   3  12
HETATM   12  N   UNL     1      61.911   9.262   0.972  1.00  0.00    -0.399 N 
HETATM   13  H   UNL     1      62.683   9.073   0.391  1.00  0.00     0.156 HD
HETATM   14  H   UNL     1      60.997   9.213   0.609  1.00  0.00     0.156 HD
ENDBRANCH   3  12
TORSDOF 2
ENDMDL
MODEL 2
REMARK VINA RESULT:      -4.6      2.476      3.144
REMARK  2 active torsions:
REMARK  status: ('A' for Active; 'I' for Inactive)
REMARK    1  A    between atoms: C_1  and  C_3 
REMARK    2  A    between atoms: C_8  and  N_9 
ROOT
HETATM    1  C   UNL     1      63.103   8.842   3.707  1.00  0.00    -0.017 A 
HETATM    2  C   UNL     1      63.441   9.484   4.914  1.00  0.00     0.041 A 
HETATM    3  C   UNL     1      63.008  10.784   5.200  1.00  0.00     0.026 A 
HETATM    4  C   UNL     1      62.280   9.528   2.802  1.00  0.00     0.013 A 
HETATM    5  C   UNL     1      61.799  10.803   3.101  1.00  0.00     0.003 A 
HETATM    6  C   UNL     1      62.144  11.415   4.305  1.00  0.00     0.029 A 
ENDROOT
BRANCH   1   7
HETATM    7  C   UNL     1      63.581   7.471   3.446  1.00  0.00     0.015 A 
HETATM    8  S   UNL     1      64.376   6.559   4.669  1.00  0.00    -0.101 SA
HETATM    9  C   UNL     1      64.576   5.209   3.643  1.00  0.00     0.050 A 
HETATM   10  C   UNL     1      64.039   5.426   2.396  1.00  0.00     0.008 A 
HETATM   11  C   UNL     1      63.467   6.725   2.283  1.00  0.00     0.020 A 
ENDBRANCH   1   7
BRANCH   3  12
HETATM   12  N   UNL     1      63.246  11.342   6.463  1.00  0.00    -0.399 N 
HETATM   13  H   UNL     1      63.903  10.928   7.069  1.00  0.00     0.156 HD
HETATM   14  H   UNL     1      62.756  12.148   6.745  1.00  0.00     0.156 HD
ENDBRANCH   3  12
TORSDOF 2
ENDMDL
MODEL 3
REMARK VINA RESULT:      -4.5      2.735      4.992
REMARK  2 active torsions:
REMARK  status: ('A' for Active; 'I' for Inactive)
REMARK    1  A    between atoms: C_1  and  C_3 
REMARK    2  A    between atoms: C_8  and  N_9 
ROOT
HETATM    1  C   UNL     1      62.195   8.500   3.431  1.00  0.00    -0.017 A 
HETATM    2  C   UNL     1      62.204   9.663   4.225  1.00  0.00     0.041 A 
HETATM    3  C   UNL     1      63.237   9.926   5.132  1.00  0.00     0.026 A 
HETATM    4  C   UNL     1      63.279   7.617   3.543  1.00  0.00     0.013 A 
HETATM    5  C   UNL     1      64.340   7.895   4.405  1.00  0.00     0.003 A 
HETATM    6  C   UNL     1      64.327   9.057   5.176  1.00  0.00     0.029 A 
ENDROOT
BRANCH   1   7
HETATM    7  C   UNL     1      61.086   8.263   2.488  1.00  0.00     0.015 A 
HETATM    8  S   UNL     1      59.681   7.395   2.969  1.00  0.00    -0.101 SA
HETATM    9  C   UNL     1      58.957   7.560   1.432  1.00  0.00     0.050 A 
HETATM   10  C   UNL     1      59.749   8.272   0.563  1.00  0.00     0.008 A 
HETATM   11  C   UNL     1      60.972   8.677   1.170  1.00  0.00     0.020 A 
ENDBRANCH   1   7
BRANCH   3  12
HETATM   12  N   UNL     1      63.287  11.153   5.805  1.00  0.00    -0.399 N 
HETATM   13  H   UNL     1      62.807  11.267   6.658  1.00  0.00     0.156 HD
HETATM   14  H   UNL     1      63.802  11.902   5.427  1.00  0.00     0.156 HD
ENDBRANCH   3  12
TORSDOF 2
ENDMDL
MODEL 4
REMARK VINA RESULT:      -4.4      2.255      2.839
REMARK  2 active torsions:
REMARK  status: ('A' for Active; 'I' for Inactive)
REMARK    1  A    between atoms: C_1  and  C_3 
REMARK    2  A    between atoms: C_8  and  N_9 
ROOT
HETATM    1  C   UNL     1      64.370   8.052   4.529  1.00  0.00    -0.017 A 
HETATM    2  C   UNL     1      64.303   9.211   5.326  1.00  0.00     0.041 A 
HETATM    3  C   UNL     1      63.342  10.202   5.100  1.00  0.00     0.026 A 
HETATM    4  C   UNL     1      63.415   7.893   3.515  1.00  0.00     0.013 A 
HETATM    5  C   UNL     1      62.420   8.849   3.315  1.00  0.00     0.003 A 
HETATM    6  C   UNL     1      62.372   9.985   4.122  1.00  0.00     0.029 A 
ENDROOT
BRANCH   1   7
HETATM    7  C   UNL     1      65.401   7.031   4.802  1.00  0.00     0.015 A 
HETATM    8  S   UNL     1      65.328   6.051   6.214  1.00  0.00    -0.101 SA
HETATM    9  C   UNL     1      66.754   5.210   5.799  1.00  0.00     0.050 A 
HETATM   10  C   UNL     1      67.279   5.643   4.604  1.00  0.00     0.008 A 
HETATM   11  C   UNL     1      66.500   6.689   4.031  1.00  0.00     0.020 A 
ENDBRANCH   1   7
BRANCH   3  12
HETATM   12  N   UNL     1      63.215  11.275   5.994  1.00  0.00    -0.399 N 
HETATM   13  H   UNL     1      62.340  11.477   6.398  1.00  0.00     0.156 HD
HETATM   14  H   UNL     1      63.999  11.825   6.217  1.00  0.00     0.156 HD
ENDBRANCH   3  12
TORSDOF 2
ENDMDL
MODEL 5
REMARK VINA RESULT:      -4.4      1.530      2.430
REMARK  2 active torsions:
REMARK  status: ('A' for Active; 'I' for Inactive)
REMARK    1  A    between atoms: C_1  and  C_3 
REMARK    2  A    between atoms: C_8  and  N_9 
ROOT
HETATM    1  C   UNL     1      63.066   8.148   3.363  1.00  0.00    -0.017 A 
HETATM    2  C   UNL     1      62.580   9.469   3.376  1.00  0.00     0.041 A 
HETATM    3  C   UNL     1      62.004  10.051   2.241  1.00  0.00     0.026 A 
HETATM    4  C   UNL     1      62.925   7.404   2.183  1.00  0.00     0.013 A 
HETATM    5  C   UNL     1      62.304   7.956   1.062  1.00  0.00     0.003 A 
HETATM    6  C   UNL     1      61.826   9.265   1.103  1.00  0.00     0.029 A 
ENDROOT
BRANCH   1   7
HETATM    7  C   UNL     1      63.666   7.574   4.583  1.00  0.00     0.015 A 
HETATM    8  S   UNL     1      65.227   8.061   5.119  1.00  0.00    -0.101 SA
HETATM    9  C   UNL     1      65.172   7.022   6.473  1.00  0.00     0.050 A 
HETATM   10  C   UNL     1      63.990   6.324   6.539  1.00  0.00     0.008 A 
HETATM   11  C   UNL     1      63.125   6.642   5.453  1.00  0.00     0.020 A 
ENDBRANCH   1   7
BRANCH   3  12
HETATM   12  N   UNL     1      61.407  11.316   2.325  1.00  0.00    -0.399 N 
HETATM   13  H   UNL     1      60.920  11.682   1.552  1.00  0.00     0.156 HD
HETATM   14  H   UNL     1      61.475  11.838   3.157  1.00  0.00     0.156 HD
ENDBRANCH   3  12
TORSDOF 2
ENDMDL
MODEL 6
REMARK VINA RESULT:      -4.3      2.653      3.095
REMARK  2 active torsions:
REMARK  status: ('A' for Active; 'I' for Inactive)
REMARK    1  A    between atoms: C_1  and  C_3 
REMARK    2  A    between atoms: C_8  and  N_9 
ROOT
HETATM    1  C   UNL     1      62.990   8.644   4.083  1.00  0.00    -0.017 A 
HETATM    2  C   UNL     1      63.499   9.431   5.134  1.00  0.00     0.041 A 
HETATM    3  C   UNL     1      63.159  10.782   5.270  1.00  0.00     0.026 A 
HETATM    4  C   UNL     1      62.093   9.241   3.186  1.00  0.00     0.013 A 
HETATM    5  C   UNL     1      61.706  10.572   3.344  1.00  0.00     0.003 A 
HETATM    6  C   UNL     1      62.220  11.329   4.396  1.00  0.00     0.029 A 
ENDROOT
BRANCH   1   7
HETATM    7  C   UNL     1      63.374   7.223   3.977  1.00  0.00     0.015 A 
HETATM    8  S   UNL     1      63.660   6.493   2.446  1.00  0.00    -0.101 SA
HETATM    9  C   UNL     1      64.027   4.981   3.148  1.00  0.00     0.050 A 
HETATM   10  C   UNL     1      63.955   5.018   4.520  1.00  0.00     0.008 A 
HETATM   11  C   UNL     1      63.580   6.307   4.996  1.00  0.00     0.020 A 
ENDBRANCH   1   7
BRANCH   3  12
HETATM   12  N   UNL     1      63.572  11.500   6.401  1.00  0.00    -0.399 N 
HETATM   13  H   UNL     1      64.520  11.742   6.511  1.00  0.00     0.156 HD
HETATM   14  H   UNL     1      62.914  11.763   7.084  1.00  0.00     0.156 HD
ENDBRANCH   3  12
TORSDOF 2
ENDMDL
MODEL 7
REMARK VINA RESULT:      -4.3      2.779      4.712
REMARK  2 active torsions:
REMARK  status: ('A' for Active; 'I' for Inactive)
REMARK    1  A    between atoms: C_1  and  C_3 
REMARK    2  A    between atoms: C_8  and  N_9 
ROOT
HETATM    1  C   UNL     1      62.079   9.023   3.000  1.00  0.00    -0.017 A 
HETATM    2  C   UNL     1      63.033   8.477   3.880  1.00  0.00     0.041 A 
HETATM    3  C   UNL     1      63.605   9.237   4.907  1.00  0.00     0.026 A 
HETATM    4  C   UNL     1      61.681  10.353   3.201  1.00  0.00     0.013 A 
HETATM    5  C   UNL     1      62.205  11.103   4.254  1.00  0.00     0.003 A 
HETATM    6  C   UNL     1      63.144  10.537   5.115  1.00  0.00     0.029 A 
ENDROOT
BRANCH   1   7
HETATM    7  C   UNL     1      61.502   8.186   1.931  1.00  0.00     0.015 A 
HETATM    8  S   UNL     1      62.161   6.641   1.558  1.00  0.00    -0.101 SA
HETATM    9  C   UNL     1      61.013   6.361   0.326  1.00  0.00     0.050 A 
HETATM   10  C   UNL     1      60.128   7.405   0.200  1.00  0.00     0.008 A 
HETATM   11  C   UNL     1      60.409   8.453   1.123  1.00  0.00     0.020 A 
ENDBRANCH   1   7
BRANCH   3  12
HETATM   12  N   UNL     1      64.446   8.628   5.848  1.00  0.00    -0.399 N 
HETATM   13  H   UNL     1      64.159   7.803   6.303  1.00  0.00     0.156 HD
HETATM   14  H   UNL     1      65.322   9.026   6.055  1.00  0.00     0.156 HD
ENDBRANCH   3  12
TORSDOF 2
ENDMDL
MODEL 8
REMARK VINA RESULT:      -4.2      1.301      1.632
REMARK  2 active torsions:
REMARK  status: ('A' for Active; 'I' for Inactive)
REMARK    1  A    between atoms: C_1  and  C_3 
REMARK    2  A    between atoms: C_8  and  N_9 
ROOT
HETATM    1  C   UNL     1      64.277   8.325   4.673  1.00  0.00    -0.017 A 
HETATM    2  C   UNL     1      63.775   7.781   3.476  1.00  0.00     0.041 A 
HETATM    3  C   UNL     1      62.664   8.333   2.828  1.00  0.00     0.026 A 
HETATM    4  C   UNL     1      63.655   9.471   5.189  1.00  0.00     0.013 A 
HETATM    5  C   UNL     1      62.581  10.061   4.523  1.00  0.00     0.003 A 
HETATM    6  C   UNL     1      62.106   9.506   3.336  1.00  0.00     0.029 A 
ENDROOT
BRANCH   1   7
HETATM    7  C   UNL     1      65.451   7.711   5.323  1.00  0.00     0.015 A 
HETATM    8  S   UNL     1      65.283   6.770   6.753  1.00  0.00    -0.101 SA
HETATM    9  C   UNL     1      66.958   6.455   6.838  1.00  0.00     0.050 A 
HETATM   10  C   UNL     1      67.644   7.034   5.796  1.00  0.00     0.008 A 
HETATM   11  C   UNL     1      66.778   7.755   4.926  1.00  0.00     0.020 A 
ENDBRANCH   1   7
BRANCH   3  12
HETATM   12  N   UNL     1      62.273   7.854   1.570  1.00  0.00    -0.399 N 
HETATM   13  H   UNL     1      61.901   8.474   0.901  1.00  0.00     0.156 HD
HETATM   14  H   UNL     1      62.371   6.899   1.355  1.00  0.00     0.156 HD
ENDBRANCH   3  12
TORSDOF 2
ENDMDL
MODEL 9
REMARK VINA RESULT:      -4.1      2.665      5.041
REMARK  2 active torsions:
REMARK  status: ('A' for Active; 'I' for Inactive)
REMARK    1  A    between atoms: C_1  and  C_3 
REMARK    2  A    between atoms: C_8  and  N_9 
ROOT
HETATM    1  C   UNL     1      65.111   7.852   4.691  1.00  0.00    -0.017 A 
HETATM    2  C   UNL     1      65.715   6.830   3.934  1.00  0.00     0.041 A 
HETATM    3  C   UNL     1      66.914   6.230   4.336  1.00  0.00     0.026 A 
HETATM    4  C   UNL     1      65.725   8.235   5.892  1.00  0.00     0.013 A 
HETATM    5  C   UNL     1      66.891   7.606   6.330  1.00  0.00     0.003 A 
HETATM    6  C   UNL     1      67.466   6.593   5.564  1.00  0.00     0.029 A 
ENDROOT
BRANCH   1   7
HETATM    7  C   UNL     1      63.847   8.458   4.230  1.00  0.00     0.015 A 
HETATM    8  S   UNL     1      63.146   9.791   5.061  1.00  0.00    -0.101 SA
HETATM    9  C   UNL     1      61.831   9.877   3.976  1.00  0.00     0.050 A 
HETATM   10  C   UNL     1      61.917   8.928   2.986  1.00  0.00     0.008 A 
HETATM   11  C   UNL     1      63.076   8.113   3.131  1.00  0.00     0.020 A 
ENDBRANCH   1   7
BRANCH   3  12
HETATM   12  N   UNL     1      67.417   5.125   3.636  1.00  0.00    -0.399 N 
HETATM   13  H   UNL     1      68.338   5.140   3.289  1.00  0.00     0.156 HD
HETATM   14  H   UNL     1      66.849   4.334   3.492  1.00  0.00     0.156 HD
ENDBRANCH   3  12
TORSDOF 2
ENDMDL
