MODEL 1
REMARK VINA RESULT:      -5.4      0.000      0.000
REMARK  3 active torsions:
REMARK  status: ('A' for Active; 'I' for Inactive)
REMARK    1  A    between atoms: C_1  and  N_2 
REMARK    2  A    between atoms: C_3  and  C_6 
REMARK    3  A    between atoms: C_6  and  O_10 
ROOT
HETATM    1  C   UNL     1      63.488   9.136   4.554  1.00  0.00     0.090 A 
HETATM    2  C   UNL     1      62.931  10.391   4.863  1.00  0.00     0.004 A 
HETATM    3  N   UNL     1      63.199   8.516   3.390  1.00  0.00    -0.356 N 
ATOM      4  HN  UNL     1      63.595   7.601   3.177  1.00  0.00     0.166 HD
HETATM    5  C   UNL     1      62.079  11.000   3.922  1.00  0.00     0.014 A 
HETATM    6  C   UNL     1      62.374   9.131   2.510  1.00  0.00     0.089 A 
HETATM    7  C   UNL     1      61.789  10.357   2.729  1.00  0.00     0.018 A 
ENDROOT
BRANCH   1   8
HETATM    8  N   UNL     1      64.224   8.443   5.511  1.00  0.00    -0.269 NA
HETATM    9  C   UNL     1      63.716   7.143   5.947  1.00  0.00     0.097 C 
HETATM   10  C   UNL     1      64.748   6.799   7.015  1.00  0.00     0.016 C 
HETATM   11  C   UNL     1      66.063   7.217   6.363  1.00  0.00     0.016 C 
HETATM   12  C   UNL     1      65.676   8.306   5.348  1.00  0.00     0.097 C 
ENDBRANCH   1   8
BRANCH   2  13
HETATM   13  C   UNL     1      63.145  11.099   6.174  1.00  0.00     0.206 C 
BRANCH  13  14
HETATM   14  O   UNL     1      64.513  11.429   6.402  1.00  0.00    -0.396 OA
HETATM   15  H   UNL     1      65.080  10.762   5.985  1.00  0.00     0.209 HD
ENDBRANCH  13  14
ENDBRANCH   2  13
TORSDOF 3
ENDMDL
MODEL 2
REMARK VINA RESULT:      -4.4      1.880      2.800
REMARK  3 active torsions:
REMARK  status: ('A' for Active; 'I' for Inactive)
REMARK    1  A    between atoms: C_1  and  N_2 
REMARK    2  A    between atoms: C_3  and  C_6 
REMARK    3  A    between atoms: C_6  and  O_10 
ROOT
HETATM    1  C   UNL     1      63.569   8.821   5.075  1.00  0.00     0.090 A 
HETATM    2  C   UNL     1      62.834   8.657   3.886  1.00  0.00     0.004 A 
HETATM    3  N   UNL     1      63.564   9.999   5.735  1.00  0.00    -0.356 N 
ATOM      4  HN  UNL     1      64.109  10.117   6.590  1.00  0.00     0.166 HD
HETATM    5  C   UNL     1      62.076   9.742   3.406  1.00  0.00     0.014 A 
HETATM    6  C   UNL     1      62.825  11.021   5.244  1.00  0.00     0.089 A 
HETATM    7  C   UNL     1      62.076  10.946   4.092  1.00  0.00     0.018 A 
ENDROOT
BRANCH   1   8
HETATM    8  N   UNL     1      64.435   7.820   5.506  1.00  0.00    -0.269 NA
HETATM    9  C   UNL     1      65.817   8.198   5.794  1.00  0.00     0.097 C 
HETATM   10  C   UNL     1      66.400   6.832   6.139  1.00  0.00     0.016 C 
HETATM   11  C   UNL     1      65.309   6.207   7.004  1.00  0.00     0.016 C 
HETATM   12  C   UNL     1      64.008   6.904   6.569  1.00  0.00     0.097 C 
ENDBRANCH   1   8
BRANCH   2  13
HETATM   13  C   UNL     1      62.860   7.400   3.056  1.00  0.00     0.206 C 
BRANCH  13  14
HETATM   14  O   UNL     1      64.180   6.895   2.869  1.00  0.00    -0.396 OA
HETATM   15  H   UNL     1      64.452   7.035   1.949  1.00  0.00     0.209 HD
ENDBRANCH  13  14
ENDBRANCH   2  13
TORSDOF 3
ENDMDL
MODEL 3
REMARK VINA RESULT:      -4.4      1.604      4.391
REMARK  3 active torsions:
REMARK  status: ('A' for Active; 'I' for Inactive)
REMARK    1  A    between atoms: C_1  and  N_2 
REMARK    2  A    between atoms: C_3  and  C_6 
REMARK    3  A    between atoms: C_6  and  O_10 
ROOT
HETATM    1  C   UNL     1      62.341   8.102   4.494  1.00  0.00     0.090 A 
HETATM    2  C   UNL     1      63.492   7.795   5.244  1.00  0.00     0.004 A 
HETATM    3  N   UNL     1      61.225   7.348   4.596  1.00  0.00    -0.356 N 
ATOM      4  HN  UNL     1      60.399   7.568   4.041  1.00  0.00     0.166 HD
HETATM    5  C   UNL     1      63.451   6.694   6.120  1.00  0.00     0.014 A 
HETATM    6  C   UNL     1      61.224   6.297   5.448  1.00  0.00     0.089 A 
HETATM    7  C   UNL     1      62.301   5.927   6.220  1.00  0.00     0.018 A 
ENDROOT
BRANCH   1   8
HETATM    8  N   UNL     1      62.386   9.095   3.520  1.00  0.00    -0.269 NA
HETATM    9  C   UNL     1      61.831   8.781   2.205  1.00  0.00     0.097 C 
HETATM   10  C   UNL     1      62.155  10.073   1.463  1.00  0.00     0.016 C 
HETATM   11  C   UNL     1      61.809  11.148   2.489  1.00  0.00     0.016 C 
HETATM   12  C   UNL     1      61.954  10.457   3.856  1.00  0.00     0.097 C 
ENDBRANCH   1   8
BRANCH   2  13
HETATM   13  C   UNL     1      64.794   8.541   5.117  1.00  0.00     0.206 C 
BRANCH  13  14
HETATM   14  O   UNL     1      64.766   9.806   5.774  1.00  0.00    -0.396 OA
HETATM   15  H   UNL     1      65.548  10.320   5.518  1.00  0.00     0.209 HD
ENDBRANCH  13  14
ENDBRANCH   2  13
TORSDOF 3
ENDMDL
MODEL 4
REMARK VINA RESULT:      -4.3      2.714      5.828
REMARK  3 active torsions:
REMARK  status: ('A' for Active; 'I' for Inactive)
REMARK    1  A    between atoms: C_1  and  N_2 
REMARK    2  A    between atoms: C_3  and  C_6 
REMARK    3  A    between atoms: C_6  and  O_10 
ROOT
HETATM    1  C   UNL     1      66.102   6.723   6.786  1.00  0.00     0.090 A 
HETATM    2  C   UNL     1      67.176   5.912   6.371  1.00  0.00     0.004 A 
HETATM    3  N   UNL     1      65.925   7.024   8.090  1.00  0.00    -0.356 N 
ATOM      4  HN  UNL     1      65.138   7.601   8.386  1.00  0.00     0.166 HD
HETATM    5  C   UNL     1      68.075   5.435   7.343  1.00  0.00     0.014 A 
HETATM    6  C   UNL     1      66.809   6.546   8.997  1.00  0.00     0.089 A 
HETATM    7  C   UNL     1      67.885   5.750   8.679  1.00  0.00     0.018 A 
ENDROOT
BRANCH   1   8
HETATM    8  N   UNL     1      65.119   7.100   5.876  1.00  0.00    -0.269 NA
HETATM    9  C   UNL     1      63.734   6.754   6.192  1.00  0.00     0.097 C 
HETATM   10  C   UNL     1      63.039   7.264   4.935  1.00  0.00     0.016 C 
HETATM   11  C   UNL     1      63.727   8.604   4.688  1.00  0.00     0.016 C 
HETATM   12  C   UNL     1      65.110   8.469   5.346  1.00  0.00     0.097 C 
ENDBRANCH   1   8
BRANCH   2  13
HETATM   13  C   UNL     1      67.385   5.470   4.946  1.00  0.00     0.206 C 
BRANCH  13  14
HETATM   14  O   UNL     1      67.639   6.562   4.066  1.00  0.00    -0.396 OA
HETATM   15  H   UNL     1      68.167   7.232   4.527  1.00  0.00     0.209 HD
ENDBRANCH  13  14
ENDBRANCH   2  13
TORSDOF 3
ENDMDL
MODEL 5
REMARK VINA RESULT:      -4.3      2.877      4.237
REMARK  3 active torsions:
REMARK  status: ('A' for Active; 'I' for Inactive)
REMARK    1  A    between atoms: C_1  and  N_2 
REMARK    2  A    between atoms: C_3  and  C_6 
REMARK    3  A    between atoms: C_6  and  O_10 
ROOT
HETATM    1  C   UNL     1      65.508   6.893   6.491  1.00  0.00     0.090 A 
HETATM    2  C   UNL     1      65.896   7.691   5.397  1.00  0.00     0.004 A 
HETATM    3  N   UNL     1      64.219   6.843   6.889  1.00  0.00    -0.356 N 
ATOM      4  HN  UNL     1      63.945   6.274   7.690  1.00  0.00     0.166 HD
HETATM    5  C   UNL     1      64.908   8.423   4.713  1.00  0.00     0.014 A 
HETATM    6  C   UNL     1      63.296   7.562   6.207  1.00  0.00     0.089 A 
HETATM    7  C   UNL     1      63.587   8.364   5.128  1.00  0.00     0.018 A 
ENDROOT
BRANCH   1   8
HETATM    8  N   UNL     1      66.471   6.264   7.274  1.00  0.00    -0.269 NA
HETATM    9  C   UNL     1      66.786   6.861   8.571  1.00  0.00     0.097 C 
HETATM   10  C   UNL     1      67.903   5.930   9.028  1.00  0.00     0.016 C 
HETATM   11  C   UNL     1      67.377   4.552   8.638  1.00  0.00     0.016 C 
HETATM   12  C   UNL     1      66.406   4.812   7.473  1.00  0.00     0.097 C 
ENDBRANCH   1   8
BRANCH   2  13
HETATM   13  C   UNL     1      67.325   7.857   4.952  1.00  0.00     0.206 C 
BRANCH  13  14
HETATM   14  O   UNL     1      67.958   6.612   4.667  1.00  0.00    -0.396 OA
HETATM   15  H   UNL     1      68.309   6.628   3.762  1.00  0.00     0.209 HD
ENDBRANCH  13  14
ENDBRANCH   2  13
TORSDOF 3
ENDMDL
MODEL 6
REMARK VINA RESULT:      -4.0     11.106     12.865
REMARK  3 active torsions:
REMARK  status: ('A' for Active; 'I' for Inactive)
REMARK    1  A    between atoms: C_1  and  N_2 
REMARK    2  A    between atoms: C_3  and  C_6 
REMARK    3  A    between atoms: C_6  and  O_10 
ROOT
HETATM    1  C   UNL     1      56.971   2.506  12.901  1.00  0.00     0.090 A 
HETATM    2  C   UNL     1      58.040   2.510  11.985  1.00  0.00     0.004 A 
HETATM    3  N   UNL     1      57.087   1.895  14.099  1.00  0.00    -0.356 N 
ATOM      4  HN  UNL     1      56.305   1.884  14.754  1.00  0.00     0.166 HD
HETATM    5  C   UNL     1      59.244   1.879  12.352  1.00  0.00     0.014 A 
HETATM    6  C   UNL     1      58.259   1.297  14.417  1.00  0.00     0.089 A 
HETATM    7  C   UNL     1      59.354   1.256  13.584  1.00  0.00     0.018 A 
ENDROOT
BRANCH   1   8
HETATM    8  N   UNL     1      55.725   2.999  12.524  1.00  0.00    -0.269 NA
HETATM    9  C   UNL     1      54.823   2.092  11.818  1.00  0.00     0.097 C 
HETATM   10  C   UNL     1      53.660   3.037  11.538  1.00  0.00     0.016 C 
HETATM   11  C   UNL     1      53.521   3.801  12.852  1.00  0.00     0.016 C 
HETATM   12  C   UNL     1      54.916   3.741  13.497  1.00  0.00     0.097 C 
ENDBRANCH   1   8
BRANCH   2  13
HETATM   13  C   UNL     1      57.952   3.100  10.603  1.00  0.00     0.206 C 
BRANCH  13  14
HETATM   14  O   UNL     1      58.606   4.363  10.503  1.00  0.00    -0.396 OA
HETATM   15  H   UNL     1      59.544   4.225  10.298  1.00  0.00     0.209 HD
ENDBRANCH  13  14
ENDBRANCH   2  13
TORSDOF 3
ENDMDL
MODEL 7
REMARK VINA RESULT:      -3.9      2.220      2.879
REMARK  3 active torsions:
REMARK  status: ('A' for Active; 'I' for Inactive)
REMARK    1  A    between atoms: C_1  and  N_2 
REMARK    2  A    between atoms: C_3  and  C_6 
REMARK    3  A    between atoms: C_6  and  O_10 
ROOT
HETATM    1  C   UNL     1      62.534   7.732   2.998  1.00  0.00     0.090 A 
HETATM    2  C   UNL     1      62.200   9.068   2.702  1.00  0.00     0.004 A 
HETATM    3  N   UNL     1      62.672   6.818   2.015  1.00  0.00    -0.356 N 
ATOM      4  HN  UNL     1      62.901   5.849   2.236  1.00  0.00     0.166 HD
HETATM    5  C   UNL     1      62.032   9.437   1.354  1.00  0.00     0.014 A 
HETATM    6  C   UNL     1      62.502   7.209   0.730  1.00  0.00     0.089 A 
HETATM    7  C   UNL     1      62.179   8.491   0.351  1.00  0.00     0.018 A 
ENDROOT
BRANCH   1   8
HETATM    8  N   UNL     1      62.574   7.300   4.320  1.00  0.00    -0.269 NA
HETATM    9  C   UNL     1      61.419   6.559   4.827  1.00  0.00     0.097 C 
HETATM   10  C   UNL     1      61.843   6.365   6.278  1.00  0.00     0.016 C 
HETATM   11  C   UNL     1      63.319   5.998   6.154  1.00  0.00     0.016 C 
HETATM   12  C   UNL     1      63.774   6.622   4.823  1.00  0.00     0.097 C 
ENDBRANCH   1   8
BRANCH   2  13
HETATM   13  C   UNL     1      61.949  10.118   3.752  1.00  0.00     0.206 C 
BRANCH  13  14
HETATM   14  O   UNL     1      61.439  11.330   3.203  1.00  0.00    -0.396 OA
HETATM   15  H   UNL     1      61.395  11.254   2.236  1.00  0.00     0.209 HD
ENDBRANCH  13  14
ENDBRANCH   2  13
TORSDOF 3
ENDMDL
MODEL 8
REMARK VINA RESULT:      -3.9      1.986      2.136
REMARK  3 active torsions:
REMARK  status: ('A' for Active; 'I' for Inactive)
REMARK    1  A    between atoms: C_1  and  N_2 
REMARK    2  A    between atoms: C_3  and  C_6 
REMARK    3  A    between atoms: C_6  and  O_10 
ROOT
HETATM    1  C   UNL     1      62.905   8.425   3.097  1.00  0.00     0.090 A 
HETATM    2  C   UNL     1      62.620   9.547   3.898  1.00  0.00     0.004 A 
HETATM    3  N   UNL     1      62.607   8.419   1.780  1.00  0.00    -0.356 N 
ATOM      4  HN  UNL     1      62.804   7.599   1.206  1.00  0.00     0.166 HD
HETATM    5  C   UNL     1      62.035  10.675   3.293  1.00  0.00     0.014 A 
HETATM    6  C   UNL     1      62.044   9.522   1.233  1.00  0.00     0.089 A 
HETATM    7  C   UNL     1      61.735  10.662   1.940  1.00  0.00     0.018 A 
ENDROOT
BRANCH   1   8
HETATM    8  N   UNL     1      63.356   7.245   3.681  1.00  0.00    -0.269 NA
HETATM    9  C   UNL     1      62.548   6.042   3.491  1.00  0.00     0.097 C 
HETATM   10  C   UNL     1      63.342   5.052   4.337  1.00  0.00     0.016 C 
HETATM   11  C   UNL     1      64.787   5.381   3.975  1.00  0.00     0.016 C 
HETATM   12  C   UNL     1      64.761   6.850   3.522  1.00  0.00     0.097 C 
ENDBRANCH   1   8
BRANCH   2  13
HETATM   13  C   UNL     1      62.849   9.589   5.386  1.00  0.00     0.206 C 
BRANCH  13  14
HETATM   14  O   UNL     1      64.104  10.171   5.730  1.00  0.00    -0.396 OA
HETATM   15  H   UNL     1      63.998  10.722   6.521  1.00  0.00     0.209 HD
ENDBRANCH  13  14
ENDBRANCH   2  13
TORSDOF 3
ENDMDL
MODEL 9
REMARK VINA RESULT:      -3.8      2.119      4.887
REMARK  3 active torsions:
REMARK  status: ('A' for Active; 'I' for Inactive)
REMARK    1  A    between atoms: C_1  and  N_2 
REMARK    2  A    between atoms: C_3  and  C_6 
REMARK    3  A    between atoms: C_6  and  O_10 
ROOT
HETATM    1  C   UNL     1      64.355   7.932   5.580  1.00  0.00     0.090 A 
HETATM    2  C   UNL     1      64.099   6.734   6.274  1.00  0.00     0.004 A 
HETATM    3  N   UNL     1      65.520   8.594   5.747  1.00  0.00    -0.356 N 
ATOM      4  HN  UNL     1      65.695   9.468   5.251  1.00  0.00     0.166 HD
HETATM    5  C   UNL     1      65.091   6.229   7.135  1.00  0.00     0.014 A 
HETATM    6  C   UNL     1      66.450   8.078   6.584  1.00  0.00     0.089 A 
HETATM    7  C   UNL     1      66.284   6.914   7.299  1.00  0.00     0.018 A 
ENDROOT
BRANCH   1   8
HETATM    8  N   UNL     1      63.350   8.533   4.828  1.00  0.00    -0.269 NA
HETATM    9  C   UNL     1      63.123   9.964   5.020  1.00  0.00     0.097 C 
HETATM   10  C   UNL     1      61.928  10.171   4.096  1.00  0.00     0.016 C 
HETATM   11  C   UNL     1      62.305   9.351   2.866  1.00  0.00     0.016 C 
HETATM   12  C   UNL     1      63.273   8.275   3.385  1.00  0.00     0.097 C 
ENDBRANCH   1   8
BRANCH   2  13
HETATM   13  C   UNL     1      62.792   5.989   6.198  1.00  0.00     0.206 C 
BRANCH  13  14
HETATM   14  O   UNL     1      62.745   5.076   5.105  1.00  0.00    -0.396 OA
HETATM   15  H   UNL     1      61.909   5.187   4.626  1.00  0.00     0.209 HD
ENDBRANCH  13  14
ENDBRANCH   2  13
TORSDOF 3
ENDMDL
