MODEL 1
REMARK VINA RESULT:      -4.9      0.000      0.000
REMARK  3 active torsions:
REMARK  status: ('A' for Active; 'I' for Inactive)
REMARK    1  A    between atoms: C_4  and  C_11 
REMARK    2  A    between atoms: N_6  and  C_12 
REMARK    3  A    between atoms: C_11  and  C_12 
ROOT
HETATM    1  C   UNL     1      62.863   8.836   3.168  1.00  0.00     0.081 A 
HETATM    2  O   UNL     1      63.152   7.669   2.504  1.00  0.00    -0.350 OA
HETATM    3  C   UNL     1      62.170   9.750   2.383  1.00  0.00    -0.022 A 
HETATM    4  C   UNL     1      63.219   9.110   4.480  1.00  0.00    -0.023 A 
HETATM    5  C   UNL     1      62.313   7.730   1.328  1.00  0.00     0.180 C 
HETATM    6  C   UNL     1      62.125  11.283   4.204  1.00  0.00     0.001 A 
HETATM    7  C   UNL     1      61.997   9.192   1.022  1.00  0.00     0.068 C 
HETATM    8  C   UNL     1      61.799  10.985   2.880  1.00  0.00     0.010 A 
HETATM    9  C   UNL     1      62.828  10.357   4.995  1.00  0.00     0.010 A 
ENDROOT
BRANCH   4  10
HETATM   10  C   UNL     1      63.964   8.116   5.337  1.00  0.00     0.068 C 
BRANCH  10  11
HETATM   11  C   UNL     1      65.496   8.202   5.247  1.00  0.00     0.234 C 
BRANCH  11  12
HETATM   12  N   UNL     1      66.139   8.339   6.557  1.00  0.00    -0.079 N 
HETATM   13  H   UNL     1      66.554   7.447   6.827  1.00  0.00     0.274 HD
HETATM   14  H   UNL     1      65.445   8.615   7.251  1.00  0.00     0.274 HD
HETATM   15  H   UNL     1      66.869   9.050   6.505  1.00  0.00     0.274 HD
ENDBRANCH  11  12
ENDBRANCH  10  11
ENDBRANCH   4  10
TORSDOF 3
ENDMDL
MODEL 2
REMARK VINA RESULT:      -4.9      2.552      4.679
REMARK  3 active torsions:
REMARK  status: ('A' for Active; 'I' for Inactive)
REMARK    1  A    between atoms: C_4  and  C_11 
REMARK    2  A    between atoms: N_6  and  C_12 
REMARK    3  A    between atoms: C_11  and  C_12 
ROOT
HETATM    1  C   UNL     1      65.099   8.188   5.230  1.00  0.00     0.081 A 
HETATM    2  O   UNL     1      65.615   8.930   6.263  1.00  0.00    -0.350 OA
HETATM    3  C   UNL     1      66.028   7.319   4.669  1.00  0.00    -0.022 A 
HETATM    4  C   UNL     1      63.796   8.278   4.763  1.00  0.00    -0.023 A 
HETATM    5  C   UNL     1      66.858   8.260   6.575  1.00  0.00     0.180 C 
HETATM    6  C   UNL     1      64.381   6.549   3.132  1.00  0.00     0.001 A 
HETATM    7  C   UNL     1      67.335   7.502   5.339  1.00  0.00     0.068 C 
HETATM    8  C   UNL     1      65.690   6.496   3.611  1.00  0.00     0.010 A 
HETATM    9  C   UNL     1      63.444   7.430   3.701  1.00  0.00     0.010 A 
ENDROOT
BRANCH   4  10
HETATM   10  C   UNL     1      62.784   9.215   5.376  1.00  0.00     0.068 C 
BRANCH  10  11
HETATM   11  C   UNL     1      63.025  10.706   5.093  1.00  0.00     0.234 C 
BRANCH  11  12
HETATM   12  N   UNL     1      63.680  11.401   6.203  1.00  0.00    -0.079 N 
HETATM   13  H   UNL     1      63.640  10.820   7.040  1.00  0.00     0.274 HD
HETATM   14  H   UNL     1      63.204  12.286   6.380  1.00  0.00     0.274 HD
HETATM   15  H   UNL     1      64.655  11.583   5.963  1.00  0.00     0.274 HD
ENDBRANCH  11  12
ENDBRANCH  10  11
ENDBRANCH   4  10
TORSDOF 3
ENDMDL
MODEL 3
REMARK VINA RESULT:      -4.8      1.666      2.921
REMARK  3 active torsions:
REMARK  status: ('A' for Active; 'I' for Inactive)
REMARK    1  A    between atoms: C_4  and  C_11 
REMARK    2  A    between atoms: N_6  and  C_12 
REMARK    3  A    between atoms: C_11  and  C_12 
ROOT
HETATM    1  C   UNL     1      61.967   9.536   3.214  1.00  0.00     0.081 A 
HETATM    2  O   UNL     1      61.739  10.499   4.167  1.00  0.00    -0.350 OA
HETATM    3  C   UNL     1      61.966  10.043   1.919  1.00  0.00    -0.022 A 
HETATM    4  C   UNL     1      62.170   8.191   3.480  1.00  0.00    -0.023 A 
HETATM    5  C   UNL     1      61.918  11.740   3.446  1.00  0.00     0.180 C 
HETATM    6  C   UNL     1      62.398   7.864   1.065  1.00  0.00     0.001 A 
HETATM    7  C   UNL     1      61.660  11.491   1.962  1.00  0.00     0.068 C 
HETATM    8  C   UNL     1      62.171   9.220   0.829  1.00  0.00     0.010 A 
HETATM    9  C   UNL     1      62.398   7.354   2.376  1.00  0.00     0.010 A 
ENDROOT
BRANCH   4  10
HETATM   10  C   UNL     1      62.181   7.641   4.885  1.00  0.00     0.068 C 
BRANCH  10  11
HETATM   11  C   UNL     1      63.558   7.629   5.567  1.00  0.00     0.234 C 
BRANCH  11  12
HETATM   12  N   UNL     1      64.137   8.968   5.712  1.00  0.00    -0.079 N 
HETATM   13  H   UNL     1      63.419   9.669   5.533  1.00  0.00     0.274 HD
HETATM   14  H   UNL     1      64.899   9.083   5.045  1.00  0.00     0.274 HD
HETATM   15  H   UNL     1      64.495   9.083   6.660  1.00  0.00     0.274 HD
ENDBRANCH  11  12
ENDBRANCH  10  11
ENDBRANCH   4  10
TORSDOF 3
ENDMDL
MODEL 4
REMARK VINA RESULT:      -4.8      2.600      4.091
REMARK  3 active torsions:
REMARK  status: ('A' for Active; 'I' for Inactive)
REMARK    1  A    between atoms: C_4  and  C_11 
REMARK    2  A    between atoms: N_6  and  C_12 
REMARK    3  A    between atoms: C_11  and  C_12 
ROOT
HETATM    1  C   UNL     1      62.883   8.756   3.184  1.00  0.00     0.081 A 
HETATM    2  O   UNL     1      63.371   7.492   2.959  1.00  0.00    -0.350 OA
HETATM    3  C   UNL     1      63.132   9.212   4.474  1.00  0.00    -0.022 A 
HETATM    4  C   UNL     1      62.200   9.519   2.250  1.00  0.00    -0.023 A 
HETATM    5  C   UNL     1      64.257   7.266   4.079  1.00  0.00     0.180 C 
HETATM    6  C   UNL     1      62.035  11.261   3.961  1.00  0.00     0.001 A 
HETATM    7  C   UNL     1      63.819   8.150   5.244  1.00  0.00     0.068 C 
HETATM    8  C   UNL     1      62.708  10.461   4.885  1.00  0.00     0.010 A 
HETATM    9  C   UNL     1      61.783  10.796   2.658  1.00  0.00     0.010 A 
ENDROOT
BRANCH   4  10
HETATM   10  C   UNL     1      61.936   9.029   0.847  1.00  0.00     0.068 C 
BRANCH  10  11
HETATM   11  C   UNL     1      60.795   8.006   0.721  1.00  0.00     0.234 C 
BRANCH  11  12
HETATM   12  N   UNL     1      59.477   8.582   1.000  1.00  0.00    -0.079 N 
HETATM   13  H   UNL     1      58.822   7.835   1.232  1.00  0.00     0.274 HD
HETATM   14  H   UNL     1      59.143   9.083   0.177  1.00  0.00     0.274 HD
HETATM   15  H   UNL     1      59.547   9.228   1.786  1.00  0.00     0.274 HD
ENDBRANCH  11  12
ENDBRANCH  10  11
ENDBRANCH   4  10
TORSDOF 3
ENDMDL
MODEL 5
REMARK VINA RESULT:      -4.4      1.743      3.144
REMARK  3 active torsions:
REMARK  status: ('A' for Active; 'I' for Inactive)
REMARK    1  A    between atoms: C_4  and  C_11 
REMARK    2  A    between atoms: N_6  and  C_12 
REMARK    3  A    between atoms: C_11  and  C_12 
ROOT
HETATM    1  C   UNL     1      63.724   8.986   4.759  1.00  0.00     0.081 A 
HETATM    2  O   UNL     1      63.637  10.019   5.660  1.00  0.00    -0.350 OA
HETATM    3  C   UNL     1      62.737   9.035   3.780  1.00  0.00    -0.022 A 
HETATM    4  C   UNL     1      64.675   7.978   4.798  1.00  0.00    -0.023 A 
HETATM    5  C   UNL     1      62.731  10.949   5.024  1.00  0.00     0.180 C 
HETATM    6  C   UNL     1      63.617   7.057   2.791  1.00  0.00     0.001 A 
HETATM    7  C   UNL     1      61.842  10.185   4.046  1.00  0.00     0.068 C 
HETATM    8  C   UNL     1      62.662   8.073   2.791  1.00  0.00     0.010 A 
HETATM    9  C   UNL     1      64.613   7.009   3.783  1.00  0.00     0.010 A 
ENDROOT
BRANCH   4  10
HETATM   10  C   UNL     1      65.752   7.928   5.854  1.00  0.00     0.068 C 
BRANCH  10  11
HETATM   11  C   UNL     1      67.118   7.423   5.364  1.00  0.00     0.234 C 
BRANCH  11  12
HETATM   12  N   UNL     1      68.074   7.209   6.454  1.00  0.00    -0.079 N 
HETATM   13  H   UNL     1      68.553   8.085   6.663  1.00  0.00     0.274 HD
HETATM   14  H   UNL     1      68.758   6.506   6.175  1.00  0.00     0.274 HD
HETATM   15  H   UNL     1      67.577   6.888   7.285  1.00  0.00     0.274 HD
ENDBRANCH  11  12
ENDBRANCH  10  11
ENDBRANCH   4  10
TORSDOF 3
ENDMDL
MODEL 6
REMARK VINA RESULT:      -4.3      2.295      3.151
REMARK  3 active torsions:
REMARK  status: ('A' for Active; 'I' for Inactive)
REMARK    1  A    between atoms: C_4  and  C_11 
REMARK    2  A    between atoms: N_6  and  C_12 
REMARK    3  A    between atoms: C_11  and  C_12 
ROOT
HETATM    1  C   UNL     1      61.292   8.002   3.611  1.00  0.00     0.081 A 
HETATM    2  O   UNL     1      61.010   7.230   4.712  1.00  0.00    -0.350 OA
HETATM    3  C   UNL     1      60.574   7.621   2.483  1.00  0.00    -0.022 A 
HETATM    4  C   UNL     1      62.200   9.051   3.590  1.00  0.00    -0.023 A 
HETATM    5  C   UNL     1      59.808   6.522   4.331  1.00  0.00     0.180 C 
HETATM    6  C   UNL     1      61.624   9.352   1.230  1.00  0.00     0.001 A 
HETATM    7  C   UNL     1      59.744   6.439   2.808  1.00  0.00     0.068 C 
HETATM    8  C   UNL     1      60.733   8.279   1.278  1.00  0.00     0.010 A 
HETATM    9  C   UNL     1      62.350   9.733   2.373  1.00  0.00     0.010 A 
ENDROOT
BRANCH   4  10
HETATM   10  C   UNL     1      62.973   9.470   4.816  1.00  0.00     0.068 C 
BRANCH  10  11
HETATM   11  C   UNL     1      62.734  10.920   5.269  1.00  0.00     0.234 C 
BRANCH  11  12
HETATM   12  N   UNL     1      63.747  11.399   6.213  1.00  0.00    -0.079 N 
HETATM   13  H   UNL     1      64.382  10.636   6.446  1.00  0.00     0.274 HD
HETATM   14  H   UNL     1      63.291  11.734   7.061  1.00  0.00     0.274 HD
HETATM   15  H   UNL     1      64.275  12.162   5.787  1.00  0.00     0.274 HD
ENDBRANCH  11  12
ENDBRANCH  10  11
ENDBRANCH   4  10
TORSDOF 3
ENDMDL
MODEL 7
REMARK VINA RESULT:      -4.2      1.408      1.518
REMARK  3 active torsions:
REMARK  status: ('A' for Active; 'I' for Inactive)
REMARK    1  A    between atoms: C_4  and  C_11 
REMARK    2  A    between atoms: N_6  and  C_12 
REMARK    3  A    between atoms: C_11  and  C_12 
ROOT
HETATM    1  C   UNL     1      62.206   8.137   2.507  1.00  0.00     0.081 A 
HETATM    2  O   UNL     1      62.327   6.888   1.950  1.00  0.00    -0.350 OA
HETATM    3  C   UNL     1      62.108   9.148   1.556  1.00  0.00    -0.022 A 
HETATM    4  C   UNL     1      62.190   8.401   3.868  1.00  0.00    -0.023 A 
HETATM    5  C   UNL     1      61.966   7.096   0.565  1.00  0.00     0.180 C 
HETATM    6  C   UNL     1      61.949  10.768   3.293  1.00  0.00     0.001 A 
HETATM    7  C   UNL     1      62.219   8.557   0.203  1.00  0.00     0.068 C 
HETATM    8  C   UNL     1      61.988  10.473   1.930  1.00  0.00     0.010 A 
HETATM    9  C   UNL     1      62.049   9.744   4.252  1.00  0.00     0.010 A 
ENDROOT
BRANCH   4  10
HETATM   10  C   UNL     1      62.287   7.305   4.901  1.00  0.00     0.068 C 
BRANCH  10  11
HETATM   11  C   UNL     1      62.857   7.742   6.260  1.00  0.00     0.234 C 
BRANCH  11  12
HETATM   12  N   UNL     1      64.321   7.713   6.303  1.00  0.00    -0.079 N 
HETATM   13  H   UNL     1      64.652   6.799   5.994  1.00  0.00     0.274 HD
HETATM   14  H   UNL     1      64.638   7.885   7.257  1.00  0.00     0.274 HD
HETATM   15  H   UNL     1      64.695   8.435   5.686  1.00  0.00     0.274 HD
ENDBRANCH  11  12
ENDBRANCH  10  11
ENDBRANCH   4  10
TORSDOF 3
ENDMDL
MODEL 8
REMARK VINA RESULT:      -4.1      3.023      5.888
REMARK  3 active torsions:
REMARK  status: ('A' for Active; 'I' for Inactive)
REMARK    1  A    between atoms: C_4  and  C_11 
REMARK    2  A    between atoms: N_6  and  C_12 
REMARK    3  A    between atoms: C_11  and  C_12 
ROOT
HETATM    1  C   UNL     1      65.701   6.870   6.501  1.00  0.00     0.081 A 
HETATM    2  O   UNL     1      65.297   7.018   7.806  1.00  0.00    -0.350 OA
HETATM    3  C   UNL     1      66.961   6.292   6.386  1.00  0.00    -0.022 A 
HETATM    4  C   UNL     1      64.962   7.256   5.394  1.00  0.00    -0.023 A 
HETATM    5  C   UNL     1      66.227   6.193   8.545  1.00  0.00     0.180 C 
HETATM    6  C   UNL     1      66.807   6.430   4.014  1.00  0.00     0.001 A 
HETATM    7  C   UNL     1      67.515   6.054   7.738  1.00  0.00     0.068 C 
HETATM    8  C   UNL     1      67.536   6.071   5.149  1.00  0.00     0.010 A 
HETATM    9  C   UNL     1      65.535   7.016   4.135  1.00  0.00     0.010 A 
ENDROOT
BRANCH   4  10
HETATM   10  C   UNL     1      63.591   7.875   5.517  1.00  0.00     0.068 C 
BRANCH  10  11
HETATM   11  C   UNL     1      63.435   9.245   4.837  1.00  0.00     0.234 C 
BRANCH  11  12
HETATM   12  N   UNL     1      63.086  10.314   5.777  1.00  0.00    -0.079 N 
HETATM   13  H   UNL     1      62.191  10.102   6.216  1.00  0.00     0.274 HD
HETATM   14  H   UNL     1      63.019  11.200   5.275  1.00  0.00     0.274 HD
HETATM   15  H   UNL     1      63.808  10.385   6.495  1.00  0.00     0.274 HD
ENDBRANCH  11  12
ENDBRANCH  10  11
ENDBRANCH   4  10
TORSDOF 3
ENDMDL
MODEL 9
REMARK VINA RESULT:      -4.0      2.695      5.049
REMARK  3 active torsions:
REMARK  status: ('A' for Active; 'I' for Inactive)
REMARK    1  A    between atoms: C_4  and  C_11 
REMARK    2  A    between atoms: N_6  and  C_12 
REMARK    3  A    between atoms: C_11  and  C_12 
ROOT
HETATM    1  C   UNL     1      64.569   8.049   5.756  1.00  0.00     0.081 A 
HETATM    2  O   UNL     1      65.633   8.918   5.741  1.00  0.00    -0.350 OA
HETATM    3  C   UNL     1      64.901   6.793   6.250  1.00  0.00    -0.022 A 
HETATM    4  C   UNL     1      63.289   8.357   5.321  1.00  0.00    -0.023 A 
HETATM    5  C   UNL     1      66.619   8.262   6.570  1.00  0.00     0.180 C 
HETATM    6  C   UNL     1      62.657   6.070   5.923  1.00  0.00     0.001 A 
HETATM    7  C   UNL     1      66.347   6.759   6.568  1.00  0.00     0.068 C 
HETATM    8  C   UNL     1      63.959   5.785   6.334  1.00  0.00     0.010 A 
HETATM    9  C   UNL     1      62.325   7.342   5.422  1.00  0.00     0.010 A 
ENDROOT
BRANCH   4  10
HETATM   10  C   UNL     1      62.925   9.723   4.792  1.00  0.00     0.068 C 
BRANCH  10  11
HETATM   11  C   UNL     1      62.279   9.728   3.397  1.00  0.00     0.234 C 
BRANCH  11  12
HETATM   12  N   UNL     1      61.642  11.005   3.066  1.00  0.00    -0.079 N 
HETATM   13  H   UNL     1      62.098  11.756   3.582  1.00  0.00     0.274 HD
HETATM   14  H   UNL     1      60.654  10.968   3.319  1.00  0.00     0.274 HD
HETATM   15  H   UNL     1      61.729  11.179   2.064  1.00  0.00     0.274 HD
ENDBRANCH  11  12
ENDBRANCH  10  11
ENDBRANCH   4  10
TORSDOF 3
ENDMDL
