MODEL 1
REMARK VINA RESULT:      -5.4      0.000      0.000
REMARK  3 active torsions:
REMARK  status: ('A' for Active; 'I' for Inactive)
REMARK    1  A    between atoms: C_3  and  C_7 
REMARK    2  A    between atoms: C_5  and  C_11 
REMARK    3  A    between atoms: C_11  and  N_12 
ROOT
HETATM    1  N   UNL     1      65.237   7.986   6.242  1.00  0.00    -0.351 N 
ATOM      2  HN  UNL     1      65.734   8.876   6.219  1.00  0.00     0.166 HD
HETATM    3  C   UNL     1      64.070   7.755   5.599  1.00  0.00     0.084 A 
HETATM    4  S   UNL     1      63.558   6.169   5.835  1.00  0.00    -0.081 SA
HETATM    5  C   UNL     1      65.670   6.891   6.926  1.00  0.00     0.042 A 
HETATM    6  C   UNL     1      64.868   5.761   6.797  1.00  0.00     0.078 A 
ENDROOT
BRANCH   3   7
HETATM    7  C   UNL     1      63.345   8.777   4.817  1.00  0.00    -0.001 A 
HETATM    8  C   UNL     1      62.938   8.520   3.494  1.00  0.00     0.038 A 
HETATM    9  C   UNL     1      62.236   9.487   2.768  1.00  0.00     0.035 A 
HETATM   10 CL   UNL     1      61.691   9.140   1.136  1.00  0.00    -0.084 Cl
HETATM   11  C   UNL     1      61.960  10.730   3.345  1.00  0.00     0.024 A 
HETATM   12  C   UNL     1      62.368  10.999   4.654  1.00  0.00     0.003 A 
HETATM   13  C   UNL     1      63.043  10.023   5.393  1.00  0.00     0.014 A 
ENDBRANCH   3   7
BRANCH   5  14
HETATM   14  C   UNL     1      66.900   6.914   7.779  1.00  0.00     0.286 C 
BRANCH  14  15
HETATM   15  N   UNL     1      68.068   6.552   6.980  1.00  0.00    -0.074 N 
HETATM   16  H   UNL     1      68.891   6.509   7.580  1.00  0.00     0.274 HD
HETATM   17  H   UNL     1      68.213   7.252   6.253  1.00  0.00     0.274 HD
HETATM   18  H   UNL     1      67.915   5.640   6.549  1.00  0.00     0.274 HD
ENDBRANCH  14  15
ENDBRANCH   5  14
TORSDOF 3
ENDMDL
MODEL 2
REMARK VINA RESULT:      -5.2      3.348      5.964
REMARK  3 active torsions:
REMARK  status: ('A' for Active; 'I' for Inactive)
REMARK    1  A    between atoms: C_3  and  C_7 
REMARK    2  A    between atoms: C_5  and  C_11 
REMARK    3  A    between atoms: C_11  and  N_12 
ROOT
HETATM    1  N   UNL     1      64.372   8.931   5.738  1.00  0.00    -0.351 N 
ATOM      2  HN  UNL     1      64.770   9.294   6.604  1.00  0.00     0.166 HD
HETATM    3  C   UNL     1      64.749   7.766   5.163  1.00  0.00     0.084 A 
HETATM    4  S   UNL     1      63.859   7.471   3.766  1.00  0.00    -0.081 SA
HETATM    5  C   UNL     1      63.400   9.563   5.025  1.00  0.00     0.042 A 
HETATM    6  C   UNL     1      62.963   8.881   3.893  1.00  0.00     0.078 A 
ENDROOT
BRANCH   3   7
HETATM    7  C   UNL     1      65.817   6.894   5.694  1.00  0.00    -0.001 A 
HETATM    8  C   UNL     1      66.217   6.983   7.041  1.00  0.00     0.038 A 
HETATM    9  C   UNL     1      67.216   6.140   7.540  1.00  0.00     0.035 A 
HETATM   10 CL   UNL     1      67.675   6.225   9.232  1.00  0.00    -0.084 Cl
HETATM   11  C   UNL     1      67.845   5.224   6.692  1.00  0.00     0.024 A 
HETATM   12  C   UNL     1      67.461   5.135   5.351  1.00  0.00     0.003 A 
HETATM   13  C   UNL     1      66.441   5.955   4.857  1.00  0.00     0.014 A 
ENDBRANCH   3   7
BRANCH   5  14
HETATM   14  C   UNL     1      62.866  10.907   5.413  1.00  0.00     0.286 C 
BRANCH  14  15
HETATM   15  N   UNL     1      63.774  11.550   6.359  1.00  0.00    -0.074 N 
HETATM   16  H   UNL     1      64.351  12.232   5.868  1.00  0.00     0.274 HD
HETATM   17  H   UNL     1      64.372  10.845   6.790  1.00  0.00     0.274 HD
HETATM   18  H   UNL     1      63.231  12.023   7.083  1.00  0.00     0.274 HD
ENDBRANCH  14  15
ENDBRANCH   5  14
TORSDOF 3
ENDMDL
MODEL 3
REMARK VINA RESULT:      -5.2      1.928      2.453
REMARK  3 active torsions:
REMARK  status: ('A' for Active; 'I' for Inactive)
REMARK    1  A    between atoms: C_3  and  C_7 
REMARK    2  A    between atoms: C_5  and  C_11 
REMARK    3  A    between atoms: C_11  and  N_12 
ROOT
HETATM    1  N   UNL     1      65.132   7.311   6.912  1.00  0.00    -0.351 N 
ATOM      2  HN  UNL     1      64.251   7.420   7.415  1.00  0.00     0.166 HD
HETATM    3  C   UNL     1      65.316   7.675   5.622  1.00  0.00     0.084 A 
HETATM    4  S   UNL     1      66.898   7.379   5.135  1.00  0.00    -0.081 SA
HETATM    5  C   UNL     1      66.260   6.781   7.459  1.00  0.00     0.042 A 
HETATM    6  C   UNL     1      67.369   6.759   6.618  1.00  0.00     0.078 A 
ENDROOT
BRANCH   3   7
HETATM    7  C   UNL     1      64.250   8.236   4.766  1.00  0.00    -0.001 A 
HETATM    8  C   UNL     1      63.708   9.508   5.030  1.00  0.00     0.038 A 
HETATM    9  C   UNL     1      62.712  10.039   4.202  1.00  0.00     0.035 A 
HETATM   10 CL   UNL     1      62.076  11.645   4.510  1.00  0.00    -0.084 Cl
HETATM   11  C   UNL     1      62.229   9.292   3.123  1.00  0.00     0.024 A 
HETATM   12  C   UNL     1      62.754   8.025   2.860  1.00  0.00     0.003 A 
HETATM   13  C   UNL     1      63.771   7.504   3.666  1.00  0.00     0.014 A 
ENDBRANCH   3   7
BRANCH   5  14
HETATM   14  C   UNL     1      66.293   6.233   8.853  1.00  0.00     0.286 C 
BRANCH  14  15
HETATM   15  N   UNL     1      66.476   4.784   8.814  1.00  0.00    -0.074 N 
HETATM   16  H   UNL     1      65.891   4.349   9.527  1.00  0.00     0.274 HD
HETATM   17  H   UNL     1      67.455   4.560   8.993  1.00  0.00     0.274 HD
HETATM   18  H   UNL     1      66.209   4.433   7.894  1.00  0.00     0.274 HD
ENDBRANCH  14  15
ENDBRANCH   5  14
TORSDOF 3
ENDMDL
MODEL 4
REMARK VINA RESULT:      -5.1      1.548      2.274
REMARK  3 active torsions:
REMARK  status: ('A' for Active; 'I' for Inactive)
REMARK    1  A    between atoms: C_3  and  C_7 
REMARK    2  A    between atoms: C_5  and  C_11 
REMARK    3  A    between atoms: C_11  and  N_12 
ROOT
HETATM    1  N   UNL     1      65.022   7.754   4.891  1.00  0.00    -0.351 N 
ATOM      2  HN  UNL     1      65.684   8.297   4.336  1.00  0.00     0.166 HD
HETATM    3  C   UNL     1      63.731   7.553   4.543  1.00  0.00     0.084 A 
HETATM    4  S   UNL     1      62.948   6.585   5.674  1.00  0.00    -0.081 SA
HETATM    5  C   UNL     1      65.335   7.147   6.068  1.00  0.00     0.042 A 
HETATM    6  C   UNL     1      64.301   6.419   6.649  1.00  0.00     0.078 A 
ENDROOT
BRANCH   3   7
HETATM    7  C   UNL     1      63.104   8.133   3.337  1.00  0.00    -0.001 A 
HETATM    8  C   UNL     1      62.691   9.478   3.315  1.00  0.00     0.038 A 
HETATM    9  C   UNL     1      62.115  10.024   2.162  1.00  0.00     0.035 A 
HETATM   10 CL   UNL     1      61.647  11.715   2.128  1.00  0.00    -0.084 Cl
HETATM   11  C   UNL     1      61.920   9.223   1.033  1.00  0.00     0.024 A 
HETATM   12  C   UNL     1      62.317   7.883   1.049  1.00  0.00     0.003 A 
HETATM   13  C   UNL     1      62.921   7.344   2.189  1.00  0.00     0.014 A 
ENDBRANCH   3   7
BRANCH   5  14
HETATM   14  C   UNL     1      66.683   7.283   6.706  1.00  0.00     0.286 C 
BRANCH  14  15
HETATM   15  N   UNL     1      66.928   8.678   7.064  1.00  0.00    -0.074 N 
HETATM   16  H   UNL     1      67.539   9.105   6.369  1.00  0.00     0.274 HD
HETATM   17  H   UNL     1      67.372   8.721   7.981  1.00  0.00     0.274 HD
HETATM   18  H   UNL     1      66.041   9.182   7.091  1.00  0.00     0.274 HD
ENDBRANCH  14  15
ENDBRANCH   5  14
TORSDOF 3
ENDMDL
MODEL 5
REMARK VINA RESULT:      -4.5      2.164      2.496
REMARK  3 active torsions:
REMARK  status: ('A' for Active; 'I' for Inactive)
REMARK    1  A    between atoms: C_3  and  C_7 
REMARK    2  A    between atoms: C_5  and  C_11 
REMARK    3  A    between atoms: C_11  and  N_12 
ROOT
HETATM    1  N   UNL     1      64.738   7.060   7.004  1.00  0.00    -0.351 N 
ATOM      2  HN  UNL     1      63.906   6.852   7.556  1.00  0.00     0.166 HD
HETATM    3  C   UNL     1      64.706   7.542   5.741  1.00  0.00     0.084 A 
HETATM    4  S   UNL     1      66.263   7.796   5.155  1.00  0.00    -0.081 SA
HETATM    5  C   UNL     1      66.012   6.885   7.453  1.00  0.00     0.042 A 
HETATM    6  C   UNL     1      67.009   7.268   6.560  1.00  0.00     0.078 A 
ENDROOT
BRANCH   3   7
HETATM    7  C   UNL     1      63.461   7.785   4.985  1.00  0.00    -0.001 A 
HETATM    8  C   UNL     1      62.340   6.949   5.153  1.00  0.00     0.038 A 
HETATM    9  C   UNL     1      61.158   7.198   4.447  1.00  0.00     0.035 A 
HETATM   10 CL   UNL     1      59.751   6.181   4.699  1.00  0.00    -0.084 Cl
HETATM   11  C   UNL     1      61.095   8.264   3.544  1.00  0.00     0.024 A 
HETATM   12  C   UNL     1      62.206   9.092   3.362  1.00  0.00     0.003 A 
HETATM   13  C   UNL     1      63.378   8.864   4.090  1.00  0.00     0.014 A 
ENDBRANCH   3   7
BRANCH   5  14
HETATM   14  C   UNL     1      66.315   6.293   8.794  1.00  0.00     0.286 C 
BRANCH  14  15
HETATM   15  N   UNL     1      66.280   4.834   8.715  1.00  0.00    -0.074 N 
HETATM   16  H   UNL     1      66.602   4.536   7.795  1.00  0.00     0.274 HD
HETATM   17  H   UNL     1      65.325   4.508   8.864  1.00  0.00     0.274 HD
HETATM   18  H   UNL     1      66.889   4.441   9.433  1.00  0.00     0.274 HD
ENDBRANCH  14  15
ENDBRANCH   5  14
TORSDOF 3
ENDMDL
MODEL 6
REMARK VINA RESULT:      -4.3      3.571      6.048
REMARK  3 active torsions:
REMARK  status: ('A' for Active; 'I' for Inactive)
REMARK    1  A    between atoms: C_3  and  C_7 
REMARK    2  A    between atoms: C_5  and  C_11 
REMARK    3  A    between atoms: C_11  and  N_12 
ROOT
HETATM    1  N   UNL     1      63.678   7.858   3.560  1.00  0.00    -0.351 N 
ATOM      2  HN  UNL     1      64.043   7.068   3.027  1.00  0.00     0.166 HD
HETATM    3  C   UNL     1      64.228   8.315   4.707  1.00  0.00     0.084 A 
HETATM    4  S   UNL     1      63.383   9.648   5.289  1.00  0.00    -0.081 SA
HETATM    5  C   UNL     1      62.579   8.575   3.198  1.00  0.00     0.042 A 
HETATM    6  C   UNL     1      62.269   9.641   4.037  1.00  0.00     0.078 A 
ENDROOT
BRANCH   3   7
HETATM    7  C   UNL     1      65.403   7.700   5.358  1.00  0.00    -0.001 A 
HETATM    8  C   UNL     1      65.289   7.086   6.620  1.00  0.00     0.038 A 
HETATM    9  C   UNL     1      66.402   6.489   7.221  1.00  0.00     0.035 A 
HETATM   10 CL   UNL     1      66.240   5.684   8.772  1.00  0.00    -0.084 Cl
HETATM   11  C   UNL     1      67.645   6.527   6.581  1.00  0.00     0.024 A 
HETATM   12  C   UNL     1      67.771   7.143   5.333  1.00  0.00     0.003 A 
HETATM   13  C   UNL     1      66.653   7.713   4.717  1.00  0.00     0.014 A 
ENDBRANCH   3   7
BRANCH   5  14
HETATM   14  C   UNL     1      61.746   8.220   2.005  1.00  0.00     0.286 C 
BRANCH  14  15
HETATM   15  N   UNL     1      60.949   9.372   1.593  1.00  0.00    -0.074 N 
HETATM   16  H   UNL     1      61.158   9.601   0.622  1.00  0.00     0.274 HD
HETATM   17  H   UNL     1      61.172  10.170   2.187  1.00  0.00     0.274 HD
HETATM   18  H   UNL     1      59.957   9.148   1.682  1.00  0.00     0.274 HD
ENDBRANCH  14  15
ENDBRANCH   5  14
TORSDOF 3
ENDMDL
MODEL 7
REMARK VINA RESULT:      -4.3      4.241      6.244
REMARK  3 active torsions:
REMARK  status: ('A' for Active; 'I' for Inactive)
REMARK    1  A    between atoms: C_3  and  C_7 
REMARK    2  A    between atoms: C_5  and  C_11 
REMARK    3  A    between atoms: C_11  and  N_12 
ROOT
HETATM    1  N   UNL     1      59.963   8.114   2.497  1.00  0.00    -0.351 N 
ATOM      2  HN  UNL     1      59.477   8.134   3.393  1.00  0.00     0.166 HD
HETATM    3  C   UNL     1      61.224   8.566   2.311  1.00  0.00     0.084 A 
HETATM    4  S   UNL     1      61.712   8.346   0.716  1.00  0.00    -0.081 SA
HETATM    5  C   UNL     1      59.419   7.629   1.347  1.00  0.00     0.042 A 
HETATM    6  C   UNL     1      60.262   7.653   0.240  1.00  0.00     0.078 A 
ENDROOT
BRANCH   3   7
HETATM    7  C   UNL     1      62.040   9.188   3.374  1.00  0.00    -0.001 A 
HETATM    8  C   UNL     1      63.128   8.499   3.944  1.00  0.00     0.038 A 
HETATM    9  C   UNL     1      63.907   9.103   4.937  1.00  0.00     0.035 A 
HETATM   10 CL   UNL     1      65.290   8.256   5.608  1.00  0.00    -0.084 Cl
HETATM   11  C   UNL     1      63.588  10.387   5.391  1.00  0.00     0.024 A 
HETATM   12  C   UNL     1      62.504  11.074   4.839  1.00  0.00     0.003 A 
HETATM   13  C   UNL     1      61.743  10.485   3.824  1.00  0.00     0.014 A 
ENDBRANCH   3   7
BRANCH   5  14
HETATM   14  C   UNL     1      58.006   7.138   1.274  1.00  0.00     0.286 C 
BRANCH  14  15
HETATM   15  N   UNL     1      57.971   5.691   1.467  1.00  0.00    -0.074 N 
HETATM   16  H   UNL     1      57.175   5.445   2.054  1.00  0.00     0.274 HD
HETATM   17  H   UNL     1      58.834   5.386   1.917  1.00  0.00     0.274 HD
HETATM   18  H   UNL     1      57.879   5.230   0.561  1.00  0.00     0.274 HD
ENDBRANCH  14  15
ENDBRANCH   5  14
TORSDOF 3
ENDMDL
MODEL 8
REMARK VINA RESULT:      -4.3      3.774      5.338
REMARK  3 active torsions:
REMARK  status: ('A' for Active; 'I' for Inactive)
REMARK    1  A    between atoms: C_3  and  C_7 
REMARK    2  A    between atoms: C_5  and  C_11 
REMARK    3  A    between atoms: C_11  and  N_12 
ROOT
HETATM    1  N   UNL     1      61.215   9.734   3.650  1.00  0.00    -0.351 N 
ATOM      2  HN  UNL     1      60.424  10.373   3.570  1.00  0.00     0.166 HD
HETATM    3  C   UNL     1      61.244   8.494   3.111  1.00  0.00     0.084 A 
HETATM    4  S   UNL     1      62.717   7.740   3.414  1.00  0.00    -0.081 SA
HETATM    5  C   UNL     1      62.367  10.030   4.312  1.00  0.00     0.042 A 
HETATM    6  C   UNL     1      63.343   9.038   4.269  1.00  0.00     0.078 A 
ENDROOT
BRANCH   3   7
HETATM    7  C   UNL     1      60.113   7.891   2.375  1.00  0.00    -0.001 A 
HETATM    8  C   UNL     1      58.929   7.527   3.045  1.00  0.00     0.038 A 
HETATM    9  C   UNL     1      57.856   6.974   2.337  1.00  0.00     0.035 A 
HETATM   10 CL   UNL     1      56.367   6.568   3.172  1.00  0.00    -0.084 Cl
HETATM   11  C   UNL     1      57.968   6.751   0.961  1.00  0.00     0.024 A 
HETATM   12  C   UNL     1      59.142   7.100   0.290  1.00  0.00     0.003 A 
HETATM   13  C   UNL     1      60.205   7.681   0.989  1.00  0.00     0.014 A 
ENDBRANCH   3   7
BRANCH   5  14
HETATM   14  C   UNL     1      62.555  11.314   5.060  1.00  0.00     0.286 C 
BRANCH  14  15
HETATM   15  N   UNL     1      63.547  11.135   6.117  1.00  0.00    -0.074 N 
HETATM   16  H   UNL     1      63.811  10.152   6.173  1.00  0.00     0.274 HD
HETATM   17  H   UNL     1      63.152  11.433   7.008  1.00  0.00     0.274 HD
HETATM   18  H   UNL     1      64.373  11.697   5.905  1.00  0.00     0.274 HD
ENDBRANCH  14  15
ENDBRANCH   5  14
TORSDOF 3
ENDMDL
MODEL 9
REMARK VINA RESULT:      -4.2      3.372      5.733
REMARK  3 active torsions:
REMARK  status: ('A' for Active; 'I' for Inactive)
REMARK    1  A    between atoms: C_3  and  C_7 
REMARK    2  A    between atoms: C_5  and  C_11 
REMARK    3  A    between atoms: C_11  and  N_12 
ROOT
HETATM    1  N   UNL     1      63.260   8.252   3.125  1.00  0.00    -0.351 N 
ATOM      2  HN  UNL     1      63.551   7.543   2.453  1.00  0.00     0.166 HD
HETATM    3  C   UNL     1      63.918   8.518   4.276  1.00  0.00     0.084 A 
HETATM    4  S   UNL     1      63.172   9.768   5.119  1.00  0.00    -0.081 SA
HETATM    5  C   UNL     1      62.162   9.042   2.969  1.00  0.00     0.042 A 
HETATM    6  C   UNL     1      61.961   9.977   3.980  1.00  0.00     0.078 A 
ENDROOT
BRANCH   3   7
HETATM    7  C   UNL     1      65.118   7.783   4.727  1.00  0.00    -0.001 A 
HETATM    8  C   UNL     1      65.593   6.670   4.008  1.00  0.00     0.038 A 
HETATM    9  C   UNL     1      66.741   5.991   4.431  1.00  0.00     0.035 A 
HETATM   10 CL   UNL     1      67.355   4.635   3.502  1.00  0.00    -0.084 Cl
HETATM   11  C   UNL     1      67.406   6.399   5.592  1.00  0.00     0.024 A 
HETATM   12  C   UNL     1      66.935   7.496   6.318  1.00  0.00     0.003 A 
HETATM   13  C   UNL     1      65.806   8.195   5.880  1.00  0.00     0.014 A 
ENDBRANCH   3   7
BRANCH   5  14
HETATM   14  C   UNL     1      61.224   8.891   1.812  1.00  0.00     0.286 C 
BRANCH  14  15
HETATM   15  N   UNL     1      61.980   8.801   0.565  1.00  0.00    -0.074 N 
HETATM   16  H   UNL     1      61.561   8.092  -0.036  1.00  0.00     0.274 HD
HETATM   17  H   UNL     1      62.946   8.546   0.771  1.00  0.00     0.274 HD
HETATM   18  H   UNL     1      61.961   9.704   0.090  1.00  0.00     0.274 HD
ENDBRANCH  14  15
ENDBRANCH   5  14
TORSDOF 3
ENDMDL
