MODEL 1
REMARK VINA RESULT:      -5.9      0.000      0.000
REMARK  1 active torsions:
REMARK  status: ('A' for Active; 'I' for Inactive)
REMARK       I    between atoms: C_1  and  N_2 
REMARK    1  A    between atoms: C_1  and  C_3 
ROOT
HETATM    1  C   UNL     1      64.232   8.985   5.159  1.00  0.00     0.225 C 
HETATM    2  N   UNL     1      63.056   9.097   4.404  1.00  0.00    -0.352 N 
HETATM    3  O   UNL     1      64.642   9.926   5.842  1.00  0.00    -0.273 OA
HETATM    4  C   UNL     1      62.469  10.428   4.266  1.00  0.00     0.125 C 
HETATM    5  C   UNL     1      62.322   7.963   3.843  1.00  0.00     0.125 C 
HETATM    6  C   UNL     1      62.692   7.730   2.381  1.00  0.00     0.020 C 
HETATM    7  C   UNL     1      61.638  10.668   3.002  1.00  0.00     0.020 C 
HETATM    8  C   UNL     1      62.309  10.193   1.712  1.00  0.00     0.002 C 
HETATM    9  C   UNL     1      62.052   8.716   1.407  1.00  0.00     0.002 C 
ENDROOT
BRANCH   1  10
HETATM   10  C   UNL     1      65.017   7.668   5.072  1.00  0.00     0.103 C 
HETATM   11  C   UNL     1      66.528   7.936   4.949  1.00  0.00     0.246 C 
HETATM   12  N   UNL     1      67.298   7.894   6.191  1.00  0.00    -0.074 N 
HETATM   13  C   UNL     1      67.015   6.700   6.971  1.00  0.00     0.232 C 
HETATM   14  H   UNL     1      67.066   8.715   6.750  1.00  0.00     0.277 HD
HETATM   15  H   UNL     1      68.288   7.881   5.946  1.00  0.00     0.277 HD
HETATM   16  C   UNL     1      65.548   6.695   7.383  1.00  0.00     0.028 C 
HETATM   17  C   UNL     1      64.627   6.669   6.168  1.00  0.00     0.017 C 
ENDBRANCH   1  10
TORSDOF 1
ENDMDL
MODEL 2
REMARK VINA RESULT:      -5.4      1.127      1.239
REMARK  1 active torsions:
REMARK  status: ('A' for Active; 'I' for Inactive)
REMARK       I    between atoms: C_1  and  N_2 
REMARK    1  A    between atoms: C_1  and  C_3 
ROOT
HETATM    1  C   UNL     1      64.730   8.357   5.358  1.00  0.00     0.225 C 
HETATM    2  N   UNL     1      63.432   8.788   5.048  1.00  0.00    -0.352 N 
HETATM    3  O   UNL     1      65.554   9.126   5.857  1.00  0.00    -0.273 OA
HETATM    4  C   UNL     1      63.166  10.223   5.113  1.00  0.00     0.125 C 
HETATM    5  C   UNL     1      62.307   7.894   4.775  1.00  0.00     0.125 C 
HETATM    6  C   UNL     1      62.105   7.697   3.275  1.00  0.00     0.020 C 
HETATM    7  C   UNL     1      62.045  10.740   4.206  1.00  0.00     0.020 C 
HETATM    8  C   UNL     1      62.118  10.227   2.766  1.00  0.00     0.002 C 
HETATM    9  C   UNL     1      61.431   8.874   2.574  1.00  0.00     0.002 C 
ENDROOT
BRANCH   1  10
HETATM   10  C   UNL     1      65.106   6.908   5.015  1.00  0.00     0.103 C 
HETATM   11  C   UNL     1      66.343   6.863   4.101  1.00  0.00     0.246 C 
HETATM   12  N   UNL     1      67.632   6.659   4.762  1.00  0.00    -0.074 N 
HETATM   13  C   UNL     1      67.598   5.544   5.695  1.00  0.00     0.232 C 
HETATM   14  H   UNL     1      67.878   7.508   5.272  1.00  0.00     0.277 HD
HETATM   15  H   UNL     1      68.323   6.446   4.043  1.00  0.00     0.277 HD
HETATM   16  C   UNL     1      66.596   5.836   6.804  1.00  0.00     0.028 C 
HETATM   17  C   UNL     1      65.184   6.004   6.251  1.00  0.00     0.017 C 
ENDBRANCH   1  10
TORSDOF 1
ENDMDL
MODEL 3
REMARK VINA RESULT:      -4.8      1.825      5.572
REMARK  1 active torsions:
REMARK  status: ('A' for Active; 'I' for Inactive)
REMARK       I    between atoms: C_1  and  N_2 
REMARK    1  A    between atoms: C_1  and  C_3 
ROOT
HETATM    1  C   UNL     1      63.949   7.482   5.785  1.00  0.00     0.225 C 
HETATM    2  N   UNL     1      65.311   7.224   5.997  1.00  0.00    -0.352 N 
HETATM    3  O   UNL     1      63.171   7.615   6.732  1.00  0.00    -0.273 OA
HETATM    4  C   UNL     1      65.728   6.884   7.355  1.00  0.00     0.125 C 
HETATM    5  C   UNL     1      66.351   7.381   4.980  1.00  0.00     0.125 C 
HETATM    6  C   UNL     1      66.675   6.051   4.307  1.00  0.00     0.020 C 
HETATM    7  C   UNL     1      66.983   6.014   7.475  1.00  0.00     0.020 C 
HETATM    8  C   UNL     1      66.995   4.801   6.541  1.00  0.00     0.002 C 
HETATM    9  C   UNL     1      67.541   5.117   5.149  1.00  0.00     0.002 C 
ENDROOT
BRANCH   1  10
HETATM   10  C   UNL     1      63.449   7.550   4.334  1.00  0.00     0.103 C 
HETATM   11  C   UNL     1      62.288   6.566   4.107  1.00  0.00     0.246 C 
HETATM   12  N   UNL     1      60.938   7.117   4.217  1.00  0.00    -0.074 N 
HETATM   13  C   UNL     1      60.781   8.339   3.443  1.00  0.00     0.232 C 
HETATM   14  H   UNL     1      60.745   7.321   5.197  1.00  0.00     0.277 HD
HETATM   15  H   UNL     1      60.285   6.426   3.847  1.00  0.00     0.277 HD
HETATM   16  C   UNL     1      61.720   9.410   3.983  1.00  0.00     0.028 C 
HETATM   17  C   UNL     1      63.181   8.984   3.863  1.00  0.00     0.017 C 
ENDBRANCH   1  10
TORSDOF 1
ENDMDL
MODEL 4
REMARK VINA RESULT:      -4.7      1.961      6.057
REMARK  1 active torsions:
REMARK  status: ('A' for Active; 'I' for Inactive)
REMARK       I    between atoms: C_1  and  N_2 
REMARK    1  A    between atoms: C_1  and  C_3 
ROOT
HETATM    1  C   UNL     1      64.681   6.916   6.521  1.00  0.00     0.225 C 
HETATM    2  N   UNL     1      65.977   6.596   6.949  1.00  0.00    -0.352 N 
HETATM    3  O   UNL     1      63.815   7.271   7.323  1.00  0.00    -0.273 OA
HETATM    4  C   UNL     1      66.199   6.470   8.388  1.00  0.00     0.125 C 
HETATM    5  C   UNL     1      67.138   6.492   6.065  1.00  0.00     0.125 C 
HETATM    6  C   UNL     1      67.407   5.043   5.669  1.00  0.00     0.020 C 
HETATM    7  C   UNL     1      67.341   5.541   8.812  1.00  0.00     0.020 C 
HETATM    8  C   UNL     1      67.343   4.186   8.102  1.00  0.00     0.002 C 
HETATM    9  C   UNL     1      68.075   4.209   6.759  1.00  0.00     0.002 C 
ENDROOT
BRANCH   1  10
HETATM   10  C   UNL     1      64.361   6.764   5.027  1.00  0.00     0.103 C 
HETATM   11  C   UNL     1      63.103   5.903   4.818  1.00  0.00     0.246 C 
HETATM   12  N   UNL     1      61.842   6.624   4.645  1.00  0.00    -0.074 N 
HETATM   13  C   UNL     1      61.951   7.686   3.656  1.00  0.00     0.232 C 
HETATM   14  H   UNL     1      61.573   7.034   5.539  1.00  0.00     0.277 HD
HETATM   15  H   UNL     1      61.143   5.960   4.316  1.00  0.00     0.277 HD
HETATM   16  C   UNL     1      62.968   8.718   4.124  1.00  0.00     0.028 C 
HETATM   17  C   UNL     1      64.356   8.104   4.280  1.00  0.00     0.017 C 
ENDBRANCH   1  10
TORSDOF 1
ENDMDL
MODEL 5
REMARK VINA RESULT:      -4.7      1.966      2.902
REMARK  1 active torsions:
REMARK  status: ('A' for Active; 'I' for Inactive)
REMARK       I    between atoms: C_1  and  N_2 
REMARK    1  A    between atoms: C_1  and  C_3 
ROOT
HETATM    1  C   UNL     1      65.583   7.379   6.422  1.00  0.00     0.225 C 
HETATM    2  N   UNL     1      64.350   7.717   5.846  1.00  0.00    -0.352 N 
HETATM    3  O   UNL     1      66.586   8.069   6.230  1.00  0.00    -0.273 OA
HETATM    4  C   UNL     1      64.347   8.767   4.829  1.00  0.00     0.125 C 
HETATM    5  C   UNL     1      63.061   7.172   6.271  1.00  0.00     0.125 C 
HETATM    6  C   UNL     1      62.632   6.004   5.388  1.00  0.00     0.020 C 
HETATM    7  C   UNL     1      63.223   8.693   3.791  1.00  0.00     0.020 C 
HETATM    8  C   UNL     1      63.016   7.301   3.190  1.00  0.00     0.002 C 
HETATM    9  C   UNL     1      62.087   6.418   4.023  1.00  0.00     0.002 C 
ENDROOT
BRANCH   1  10
HETATM   10  C   UNL     1      65.654   6.096   7.263  1.00  0.00     0.103 C 
HETATM   11  C   UNL     1      66.360   4.969   6.489  1.00  0.00     0.246 C 
HETATM   12  N   UNL     1      67.787   4.792   6.756  1.00  0.00    -0.074 N 
HETATM   13  C   UNL     1      68.075   4.743   8.180  1.00  0.00     0.232 C 
HETATM   14  H   UNL     1      68.298   5.573   6.343  1.00  0.00     0.277 HD
HETATM   15  H   UNL     1      68.075   3.904   6.346  1.00  0.00     0.277 HD
HETATM   16  C   UNL     1      67.685   6.065   8.827  1.00  0.00     0.028 C 
HETATM   17  C   UNL     1      66.191   6.341   8.678  1.00  0.00     0.017 C 
ENDBRANCH   1  10
TORSDOF 1
ENDMDL
MODEL 6
REMARK VINA RESULT:      -4.6      1.803      2.059
REMARK  1 active torsions:
REMARK  status: ('A' for Active; 'I' for Inactive)
REMARK       I    between atoms: C_1  and  N_2 
REMARK    1  A    between atoms: C_1  and  C_3 
ROOT
HETATM    1  C   UNL     1      63.669   7.030   5.955  1.00  0.00     0.225 C 
HETATM    2  N   UNL     1      62.849   6.780   4.846  1.00  0.00    -0.352 N 
HETATM    3  O   UNL     1      63.235   7.618   6.948  1.00  0.00    -0.273 OA
HETATM    4  C   UNL     1      61.546   7.441   4.809  1.00  0.00     0.125 C 
HETATM    5  C   UNL     1      63.161   5.822   3.786  1.00  0.00     0.125 C 
HETATM    6  C   UNL     1      63.796   6.511   2.582  1.00  0.00     0.020 C 
HETATM    7  C   UNL     1      60.962   7.698   3.416  1.00  0.00     0.020 C 
HETATM    8  C   UNL     1      61.955   8.313   2.426  1.00  0.00     0.002 C 
HETATM    9  C   UNL     1      62.806   7.270   1.701  1.00  0.00     0.002 C 
ENDROOT
BRANCH   1  10
HETATM   10  C   UNL     1      65.138   6.590   5.875  1.00  0.00     0.103 C 
HETATM   11  C   UNL     1      66.082   7.800   5.994  1.00  0.00     0.246 C 
HETATM   12  N   UNL     1      66.614   8.080   7.327  1.00  0.00    -0.074 N 
HETATM   13  C   UNL     1      67.165   6.891   7.957  1.00  0.00     0.232 C 
HETATM   14  H   UNL     1      65.862   8.445   7.911  1.00  0.00     0.277 HD
HETATM   15  H   UNL     1      67.368   8.760   7.227  1.00  0.00     0.277 HD
HETATM   16  C   UNL     1      66.062   5.858   8.151  1.00  0.00     0.028 C 
HETATM   17  C   UNL     1      65.462   5.425   6.817  1.00  0.00     0.017 C 
ENDBRANCH   1  10
TORSDOF 1
ENDMDL
MODEL 7
REMARK VINA RESULT:      -4.4      1.539      5.697
REMARK  1 active torsions:
REMARK  status: ('A' for Active; 'I' for Inactive)
REMARK       I    between atoms: C_1  and  N_2 
REMARK    1  A    between atoms: C_1  and  C_3 
ROOT
HETATM    1  C   UNL     1      65.229   7.701   5.144  1.00  0.00     0.225 C 
HETATM    2  N   UNL     1      66.038   6.624   5.530  1.00  0.00    -0.352 N 
HETATM    3  O   UNL     1      65.692   8.838   5.034  1.00  0.00    -0.273 OA
HETATM    4  C   UNL     1      67.379   6.932   6.024  1.00  0.00     0.125 C 
HETATM    5  C   UNL     1      65.674   5.216   5.369  1.00  0.00     0.125 C 
HETATM    6  C   UNL     1      65.089   4.642   6.655  1.00  0.00     0.020 C 
HETATM    7  C   UNL     1      67.984   5.919   7.001  1.00  0.00     0.020 C 
HETATM    8  C   UNL     1      67.036   5.488   8.122  1.00  0.00     0.002 C 
HETATM    9  C   UNL     1      66.127   4.323   7.728  1.00  0.00     0.002 C 
ENDROOT
BRANCH   1  10
HETATM   10  C   UNL     1      63.736   7.428   4.906  1.00  0.00     0.103 C 
HETATM   11  C   UNL     1      62.867   8.512   5.568  1.00  0.00     0.246 C 
HETATM   12  N   UNL     1      62.432   9.612   4.707  1.00  0.00    -0.074 N 
HETATM   13  C   UNL     1      61.859   9.136   3.458  1.00  0.00     0.232 C 
HETATM   14  H   UNL     1      63.237  10.202   4.496  1.00  0.00     0.277 HD
HETATM   15  H   UNL     1      61.711  10.134   5.204  1.00  0.00     0.277 HD
HETATM   16  C   UNL     1      62.915   8.373   2.669  1.00  0.00     0.028 C 
HETATM   17  C   UNL     1      63.409   7.149   3.435  1.00  0.00     0.017 C 
ENDBRANCH   1  10
TORSDOF 1
ENDMDL
MODEL 8
REMARK VINA RESULT:      -4.4      1.844      5.582
REMARK  1 active torsions:
REMARK  status: ('A' for Active; 'I' for Inactive)
REMARK       I    between atoms: C_1  and  N_2 
REMARK    1  A    between atoms: C_1  and  C_3 
ROOT
HETATM    1  C   UNL     1      63.350   8.252   3.781  1.00  0.00     0.225 C 
HETATM    2  N   UNL     1      64.493   7.663   4.340  1.00  0.00    -0.352 N 
HETATM    3  O   UNL     1      63.072   9.433   3.997  1.00  0.00    -0.273 OA
HETATM    4  C   UNL     1      65.206   8.418   5.367  1.00  0.00     0.125 C 
HETATM    5  C   UNL     1      65.078   6.400   3.888  1.00  0.00     0.125 C 
HETATM    6  C   UNL     1      64.615   5.231   4.752  1.00  0.00     0.020 C 
HETATM    7  C   UNL     1      65.995   7.589   6.386  1.00  0.00     0.020 C 
HETATM    8  C   UNL     1      65.215   6.408   6.969  1.00  0.00     0.002 C 
HETATM    9  C   UNL     1      65.305   5.145   6.111  1.00  0.00     0.002 C 
ENDROOT
BRANCH   1  10
HETATM   10  C   UNL     1      62.431   7.366   2.928  1.00  0.00     0.103 C 
HETATM   11  C   UNL     1      60.956   7.564   3.321  1.00  0.00     0.246 C 
HETATM   12  N   UNL     1      60.190   8.513   2.514  1.00  0.00    -0.074 N 
HETATM   13  C   UNL     1      60.350   8.272   1.088  1.00  0.00     0.232 C 
HETATM   14  H   UNL     1      60.509   9.458   2.726  1.00  0.00     0.277 HD
HETATM   15  H   UNL     1      59.203   8.395   2.743  1.00  0.00     0.277 HD
HETATM   16  C   UNL     1      61.809   8.466   0.698  1.00  0.00     0.028 C 
HETATM   17  C   UNL     1      62.718   7.481   1.426  1.00  0.00     0.017 C 
ENDBRANCH   1  10
TORSDOF 1
ENDMDL
MODEL 9
REMARK VINA RESULT:      -4.2      2.634      3.898
REMARK  1 active torsions:
REMARK  status: ('A' for Active; 'I' for Inactive)
REMARK       I    between atoms: C_1  and  N_2 
REMARK    1  A    between atoms: C_1  and  C_3 
ROOT
HETATM    1  C   UNL     1      65.113   5.270   5.928  1.00  0.00     0.225 C 
HETATM    2  N   UNL     1      64.562   6.154   4.991  1.00  0.00    -0.352 N 
HETATM    3  O   UNL     1      64.570   4.193   6.183  1.00  0.00    -0.273 OA
HETATM    4  C   UNL     1      63.214   5.868   4.506  1.00  0.00     0.125 C 
HETATM    5  C   UNL     1      65.284   7.274   4.386  1.00  0.00     0.125 C 
HETATM    6  C   UNL     1      64.988   8.584   5.110  1.00  0.00     0.020 C 
HETATM    7  C   UNL     1      62.398   7.077   4.036  1.00  0.00     0.020 C 
HETATM    8  C   UNL     1      62.429   8.266   4.999  1.00  0.00     0.002 C 
HETATM    9  C   UNL     1      63.627   9.190   4.777  1.00  0.00     0.002 C 
ENDROOT
BRANCH   1  10
HETATM   10  C   UNL     1      66.389   5.706   6.663  1.00  0.00     0.103 C 
HETATM   11  C   UNL     1      66.207   5.609   8.188  1.00  0.00     0.246 C 
HETATM   12  N   UNL     1      66.692   4.385   8.824  1.00  0.00    -0.074 N 
HETATM   13  C   UNL     1      68.047   4.054   8.411  1.00  0.00     0.232 C 
HETATM   14  H   UNL     1      66.074   3.615   8.570  1.00  0.00     0.277 HD
HETATM   15  H   UNL     1      66.699   4.536   9.832  1.00  0.00     0.277 HD
HETATM   16  C   UNL     1      68.075   3.791   6.911  1.00  0.00     0.028 C 
HETATM   17  C   UNL     1      67.651   5.025   6.120  1.00  0.00     0.017 C 
ENDBRANCH   1  10
TORSDOF 1
ENDMDL
