MODEL 1
REMARK VINA RESULT:      -4.9      0.000      0.000
REMARK  1 active torsions:
REMARK  status: ('A' for Active; 'I' for Inactive)
REMARK    1  A    between atoms: C_7  and  N_9 
ROOT
HETATM    1  N   UNL     1      62.363  11.532   4.327  1.00  0.00    -0.345 N 
ATOM      2  HN  UNL     1      62.240  12.532   4.480  1.00  0.00     0.167 HD
HETATM    3  N   UNL     1      61.534   8.491   0.638  1.00  0.00    -0.191 NA
HETATM    4  C   UNL     1      62.168   9.597   2.894  1.00  0.00     0.067 A 
HETATM    5  C   UNL     1      62.044  10.966   3.127  1.00  0.00     0.027 A 
HETATM    6  C   UNL     1      61.819   8.991   1.647  1.00  0.00     0.101 C 
HETATM    7  C   UNL     1      62.842  10.743   5.303  1.00  0.00     0.098 A 
HETATM    8  C   UNL     1      62.671   8.799   3.924  1.00  0.00     0.028 A 
HETATM    9  C   UNL     1      63.027   9.381   5.137  1.00  0.00     0.049 A 
HETATM   10  C   UNL     1      61.582  11.938   2.078  1.00  0.00     0.070 C 
ENDROOT
BRANCH   7  11
HETATM   11  N   UNL     1      63.227  11.367   6.485  1.00  0.00    -0.385 N 
HETATM   12  H   UNL     1      62.547  11.751   7.084  1.00  0.00     0.157 HD
HETATM   13  H   UNL     1      64.181  11.427   6.721  1.00  0.00     0.157 HD
ENDBRANCH   7  11
TORSDOF 1
ENDMDL
MODEL 2
REMARK VINA RESULT:      -4.6      0.998      2.207
REMARK  1 active torsions:
REMARK  status: ('A' for Active; 'I' for Inactive)
REMARK    1  A    between atoms: C_7  and  N_9 
ROOT
HETATM    1  N   UNL     1      63.349   9.509   4.977  1.00  0.00    -0.345 N 
ATOM      2  HN  UNL     1      63.908   9.018   5.675  1.00  0.00     0.167 HD
HETATM    3  N   UNL     1      61.738   8.478   0.518  1.00  0.00    -0.191 NA
HETATM    4  C   UNL     1      62.306   9.569   2.800  1.00  0.00     0.067 A 
HETATM    5  C   UNL     1      63.040   8.915   3.789  1.00  0.00     0.027 A 
HETATM    6  C   UNL     1      61.993   8.962   1.543  1.00  0.00     0.101 C 
HETATM    7  C   UNL     1      62.902  10.754   5.210  1.00  0.00     0.098 A 
HETATM    8  C   UNL     1      61.850  10.861   3.067  1.00  0.00     0.028 A 
HETATM    9  C   UNL     1      62.137  11.455   4.292  1.00  0.00     0.049 A 
HETATM   10  C   UNL     1      63.526   7.500   3.650  1.00  0.00     0.070 C 
ENDROOT
BRANCH   7  11
HETATM   11  N   UNL     1      63.171  11.297   6.462  1.00  0.00    -0.385 N 
HETATM   12  H   UNL     1      63.480  12.228   6.539  1.00  0.00     0.157 HD
HETATM   13  H   UNL     1      63.056  10.747   7.271  1.00  0.00     0.157 HD
ENDBRANCH   7  11
TORSDOF 1
ENDMDL
MODEL 3
REMARK VINA RESULT:      -4.5      1.831      3.871
REMARK  1 active torsions:
REMARK  status: ('A' for Active; 'I' for Inactive)
REMARK    1  A    between atoms: C_7  and  N_9 
ROOT
HETATM    1  N   UNL     1      61.416   9.850   3.026  1.00  0.00    -0.345 N 
ATOM      2  HN  UNL     1      60.767  10.632   2.938  1.00  0.00     0.167 HD
HETATM    3  N   UNL     1      65.300   8.903   5.777  1.00  0.00    -0.191 NA
HETATM    4  C   UNL     1      63.351   8.847   4.069  1.00  0.00     0.067 A 
HETATM    5  C   UNL     1      62.425   9.883   3.944  1.00  0.00     0.027 A 
HETATM    6  C   UNL     1      64.424   8.881   5.014  1.00  0.00     0.101 C 
HETATM    7  C   UNL     1      61.296   8.766   2.241  1.00  0.00     0.098 A 
HETATM    8  C   UNL     1      63.202   7.731   3.244  1.00  0.00     0.028 A 
HETATM    9  C   UNL     1      62.153   7.682   2.331  1.00  0.00     0.049 A 
HETATM   10  C   UNL     1      62.437  11.104   4.819  1.00  0.00     0.070 C 
ENDROOT
BRANCH   7  11
HETATM   11  N   UNL     1      60.210   8.736   1.373  1.00  0.00    -0.385 N 
HETATM   12  H   UNL     1      60.140   8.024   0.697  1.00  0.00     0.157 HD
HETATM   13  H   UNL     1      59.512   9.428   1.433  1.00  0.00     0.157 HD
ENDBRANCH   7  11
TORSDOF 1
ENDMDL
MODEL 4
REMARK VINA RESULT:      -4.4      1.990      3.862
REMARK  1 active torsions:
REMARK  status: ('A' for Active; 'I' for Inactive)
REMARK    1  A    between atoms: C_7  and  N_9 
ROOT
HETATM    1  N   UNL     1      62.384   9.336   2.626  1.00  0.00    -0.345 N 
ATOM      2  HN  UNL     1      62.174   9.038   1.674  1.00  0.00     0.167 HD
HETATM    3  N   UNL     1      64.534   7.295   6.468  1.00  0.00    -0.191 NA
HETATM    4  C   UNL     1      63.318   8.867   4.804  1.00  0.00     0.067 A 
HETATM    5  C   UNL     1      63.044   8.506   3.485  1.00  0.00     0.027 A 
HETATM    6  C   UNL     1      63.991   7.996   5.719  1.00  0.00     0.101 C 
HETATM    7  C   UNL     1      62.017  10.552   3.061  1.00  0.00     0.098 A 
HETATM    8  C   UNL     1      62.928  10.137   5.232  1.00  0.00     0.028 A 
HETATM    9  C   UNL     1      62.285  10.997   4.345  1.00  0.00     0.049 A 
HETATM   10  C   UNL     1      63.472   7.196   2.887  1.00  0.00     0.070 C 
ENDROOT
BRANCH   7  11
HETATM   11  N   UNL     1      61.417  11.398   2.135  1.00  0.00    -0.385 N 
HETATM   12  H   UNL     1      61.234  12.336   2.370  1.00  0.00     0.157 HD
HETATM   13  H   UNL     1      61.172  11.056   1.244  1.00  0.00     0.157 HD
ENDBRANCH   7  11
TORSDOF 1
ENDMDL
MODEL 5
REMARK VINA RESULT:      -4.3      1.031      4.375
REMARK  1 active torsions:
REMARK  status: ('A' for Active; 'I' for Inactive)
REMARK    1  A    between atoms: C_7  and  N_9 
ROOT
HETATM    1  N   UNL     1      62.394   8.462   2.764  1.00  0.00    -0.345 N 
ATOM      2  HN  UNL     1      62.528   7.468   2.583  1.00  0.00     0.167 HD
HETATM    3  N   UNL     1      63.234  11.416   6.521  1.00  0.00    -0.191 NA
HETATM    4  C   UNL     1      62.569  10.359   4.250  1.00  0.00     0.067 A 
HETATM    5  C   UNL     1      62.768   9.010   3.957  1.00  0.00     0.027 A 
HETATM    6  C   UNL     1      62.939  10.938   5.504  1.00  0.00     0.101 C 
HETATM    7  C   UNL     1      61.845   9.261   1.833  1.00  0.00     0.098 A 
HETATM    8  C   UNL     1      62.000  11.168   3.265  1.00  0.00     0.028 A 
HETATM    9  C   UNL     1      61.649  10.616   2.036  1.00  0.00     0.049 A 
HETATM   10  C   UNL     1      63.433   8.053   4.905  1.00  0.00     0.070 C 
ENDROOT
BRANCH   7  11
HETATM   11  N   UNL     1      61.549   8.682   0.604  1.00  0.00    -0.385 N 
HETATM   12  H   UNL     1      61.380   9.252  -0.181  1.00  0.00     0.157 HD
HETATM   13  H   UNL     1      61.506   7.702   0.519  1.00  0.00     0.157 HD
ENDBRANCH   7  11
TORSDOF 1
ENDMDL
MODEL 6
REMARK VINA RESULT:      -4.3      1.611      4.501
REMARK  1 active torsions:
REMARK  status: ('A' for Active; 'I' for Inactive)
REMARK    1  A    between atoms: C_7  and  N_9 
ROOT
HETATM    1  N   UNL     1      63.115   7.314   2.479  1.00  0.00    -0.345 N 
ATOM      2  HN  UNL     1      63.567   6.504   2.902  1.00  0.00     0.167 HD
HETATM    3  N   UNL     1      61.890  11.753   4.010  1.00  0.00    -0.191 NA
HETATM    4  C   UNL     1      62.288   9.577   2.660  1.00  0.00     0.067 A 
HETATM    5  C   UNL     1      62.931   8.461   3.196  1.00  0.00     0.027 A 
HETATM    6  C   UNL     1      62.072  10.776   3.408  1.00  0.00     0.101 C 
HETATM    7  C   UNL     1      62.689   7.275   1.206  1.00  0.00     0.098 A 
HETATM    8  C   UNL     1      61.857   9.512   1.333  1.00  0.00     0.028 A 
HETATM    9  C   UNL     1      62.075   8.354   0.592  1.00  0.00     0.049 A 
HETATM   10  C   UNL     1      63.501   8.431   4.586  1.00  0.00     0.070 C 
ENDROOT
BRANCH   7  11
HETATM   11  N   UNL     1      62.964   6.118   0.485  1.00  0.00    -0.385 N 
HETATM   12  H   UNL     1      62.227   5.542   0.179  1.00  0.00     0.157 HD
HETATM   13  H   UNL     1      63.896   5.874   0.283  1.00  0.00     0.157 HD
ENDBRANCH   7  11
TORSDOF 1
ENDMDL
MODEL 7
REMARK VINA RESULT:      -4.1      2.030      2.547
REMARK  1 active torsions:
REMARK  status: ('A' for Active; 'I' for Inactive)
REMARK    1  A    between atoms: C_7  and  N_9 
ROOT
HETATM    1  N   UNL     1      64.080   9.350   5.488  1.00  0.00    -0.345 N 
ATOM      2  HN  UNL     1      64.172  10.016   6.254  1.00  0.00     0.167 HD
HETATM    3  N   UNL     1      61.214   8.969   1.591  1.00  0.00    -0.191 NA
HETATM    4  C   UNL     1      62.983   8.639   3.457  1.00  0.00     0.067 A 
HETATM    5  C   UNL     1      63.159   9.547   4.501  1.00  0.00     0.027 A 
HETATM    6  C   UNL     1      62.006   8.826   2.428  1.00  0.00     0.101 C 
HETATM    7  C   UNL     1      64.862   8.259   5.430  1.00  0.00     0.098 A 
HETATM    8  C   UNL     1      63.810   7.516   3.417  1.00  0.00     0.028 A 
HETATM    9  C   UNL     1      64.773   7.332   4.405  1.00  0.00     0.049 A 
HETATM   10  C   UNL     1      62.379  10.826   4.617  1.00  0.00     0.070 C 
ENDROOT
BRANCH   7  11
HETATM   11  N   UNL     1      65.840   8.133   6.410  1.00  0.00    -0.385 N 
HETATM   12  H   UNL     1      66.516   8.840   6.526  1.00  0.00     0.157 HD
HETATM   13  H   UNL     1      65.858   7.336   6.988  1.00  0.00     0.157 HD
ENDBRANCH   7  11
TORSDOF 1
ENDMDL
MODEL 8
REMARK VINA RESULT:      -3.7      2.278      3.075
REMARK  1 active torsions:
REMARK  status: ('A' for Active; 'I' for Inactive)
REMARK    1  A    between atoms: C_7  and  N_9 
ROOT
HETATM    1  N   UNL     1      61.631   7.420   3.948  1.00  0.00    -0.345 N 
ATOM      2  HN  UNL     1      61.238   6.522   3.665  1.00  0.00     0.167 HD
HETATM    3  N   UNL     1      61.870  11.842   1.963  1.00  0.00    -0.191 NA
HETATM    4  C   UNL     1      62.058   9.752   3.485  1.00  0.00     0.067 A 
HETATM    5  C   UNL     1      61.506   8.517   3.146  1.00  0.00     0.027 A 
HETATM    6  C   UNL     1      61.950  10.903   2.643  1.00  0.00     0.101 C 
HETATM    7  C   UNL     1      62.281   7.548   5.116  1.00  0.00     0.098 A 
HETATM    8  C   UNL     1      62.727   9.860   4.706  1.00  0.00     0.028 A 
HETATM    9  C   UNL     1      62.826   8.749   5.539  1.00  0.00     0.049 A 
HETATM   10  C   UNL     1      60.705   8.292   1.895  1.00  0.00     0.070 C 
ENDROOT
BRANCH   7  11
HETATM   11  N   UNL     1      62.321   6.428   5.940  1.00  0.00    -0.385 N 
HETATM   12  H   UNL     1      61.610   6.280   6.604  1.00  0.00     0.157 HD
HETATM   13  H   UNL     1      63.061   5.784   5.859  1.00  0.00     0.157 HD
ENDBRANCH   7  11
TORSDOF 1
ENDMDL
MODEL 9
REMARK VINA RESULT:      -3.7      1.003      3.951
REMARK  1 active torsions:
REMARK  status: ('A' for Active; 'I' for Inactive)
REMARK    1  A    between atoms: C_7  and  N_9 
ROOT
HETATM    1  N   UNL     1      61.704   9.422   1.222  1.00  0.00    -0.345 N 
ATOM      2  HN  UNL     1      61.435   9.853   0.338  1.00  0.00     0.167 HD
HETATM    3  N   UNL     1      62.844  11.069   5.642  1.00  0.00    -0.191 NA
HETATM    4  C   UNL     1      62.346   9.635   3.541  1.00  0.00     0.067 A 
HETATM    5  C   UNL     1      61.943  10.188   2.326  1.00  0.00     0.027 A 
HETATM    6  C   UNL     1      62.618  10.430   4.698  1.00  0.00     0.101 C 
HETATM    7  C   UNL     1      61.831   8.089   1.324  1.00  0.00     0.098 A 
HETATM    8  C   UNL     1      62.468   8.247   3.622  1.00  0.00     0.028 A 
HETATM    9  C   UNL     1      62.192   7.463   2.505  1.00  0.00     0.049 A 
HETATM   10  C   UNL     1      61.709  11.660   2.131  1.00  0.00     0.070 C 
ENDROOT
BRANCH   7  11
HETATM   11  N   UNL     1      61.505   7.338   0.200  1.00  0.00    -0.385 N 
HETATM   12  H   UNL     1      60.763   7.620  -0.382  1.00  0.00     0.157 HD
HETATM   13  H   UNL     1      62.015   6.522  -0.012  1.00  0.00     0.157 HD
ENDBRANCH   7  11
TORSDOF 1
ENDMDL
