MODEL 1
REMARK VINA RESULT:      -5.4      0.000      0.000
REMARK  4 active torsions:
REMARK  status: ('A' for Active; 'I' for Inactive)
REMARK    1  A    between atoms: N_1  and  C_2 
REMARK    2  A    between atoms: C_2  and  C_3 
REMARK    3  A    between atoms: C_5  and  C_11 
REMARK    4  A    between atoms: N_6  and  C_11 
ROOT
HETATM    1  C   UNL     1      62.875   8.758   4.892  1.00  0.00    -0.032 A 
HETATM    2  C   UNL     1      62.368   8.507   3.606  1.00  0.00     0.017 A 
HETATM    3  C   UNL     1      61.950   9.558   2.775  1.00  0.00    -0.033 A 
HETATM    4  C   UNL     1      62.431  11.125   4.566  1.00  0.00     0.001 A 
HETATM    5  C   UNL     1      62.888  10.074   5.370  1.00  0.00     0.009 A 
HETATM    6  C   UNL     1      61.983  10.866   3.272  1.00  0.00     0.009 A 
ENDROOT
BRANCH   1   7
HETATM    7  C   UNL     1      63.446   7.621   5.724  1.00  0.00     0.273 C 
BRANCH   7   8
HETATM    8  N   UNL     1      64.892   7.764   6.004  1.00  0.00    -0.067 N 
HETATM    9  C   UNL     1      65.339   6.825   7.049  1.00  0.00     0.235 C 
HETATM   10  C   UNL     1      66.824   7.010   7.363  1.00  0.00     0.028 C 
HETATM   11  C   UNL     1      67.673   6.833   6.111  1.00  0.00     0.003 C 
HETATM   12  C   UNL     1      67.169   7.756   5.008  1.00  0.00     0.028 C 
HETATM   13  C   UNL     1      65.667   7.574   4.769  1.00  0.00     0.235 C 
HETATM   14  H   UNL     1      65.051   8.708   6.355  1.00  0.00     0.280 HD
ENDBRANCH   7   8
ENDBRANCH   1   7
BRANCH   3  15
HETATM   15  C   UNL     1      61.550   9.279   1.349  1.00  0.00     0.268 C 
BRANCH  15  16
HETATM   16  N   UNL     1      60.192   8.758   1.248  1.00  0.00    -0.075 N 
HETATM   17  H   UNL     1      59.996   8.506   0.280  1.00  0.00     0.274 HD
HETATM   18  H   UNL     1      59.531   9.471   1.555  1.00  0.00     0.274 HD
HETATM   19  H   UNL     1      60.100   7.933   1.839  1.00  0.00     0.274 HD
ENDBRANCH  15  16
ENDBRANCH   3  15
TORSDOF 4
ENDMDL
MODEL 2
REMARK VINA RESULT:      -5.3      2.005      2.696
REMARK  4 active torsions:
REMARK  status: ('A' for Active; 'I' for Inactive)
REMARK    1  A    between atoms: N_1  and  C_2 
REMARK    2  A    between atoms: C_2  and  C_3 
REMARK    3  A    between atoms: C_5  and  C_11 
REMARK    4  A    between atoms: N_6  and  C_11 
ROOT
HETATM    1  C   UNL     1      63.492   8.026   3.710  1.00  0.00    -0.032 A 
HETATM    2  C   UNL     1      63.497   9.094   4.623  1.00  0.00     0.017 A 
HETATM    3  C   UNL     1      62.718  10.240   4.399  1.00  0.00    -0.033 A 
HETATM    4  C   UNL     1      62.012   9.308   2.272  1.00  0.00     0.001 A 
HETATM    5  C   UNL     1      62.756   8.150   2.526  1.00  0.00     0.009 A 
HETATM    6  C   UNL     1      61.982  10.336   3.213  1.00  0.00     0.009 A 
ENDROOT
BRANCH   1   7
HETATM    7  C   UNL     1      64.237   6.741   4.034  1.00  0.00     0.273 C 
BRANCH   7   8
HETATM    8  N   UNL     1      65.312   6.919   5.035  1.00  0.00    -0.067 N 
HETATM    9  C   UNL     1      65.308   5.836   6.036  1.00  0.00     0.235 C 
HETATM   10  C   UNL     1      66.395   6.051   7.091  1.00  0.00     0.028 C 
HETATM   11  C   UNL     1      67.769   6.154   6.445  1.00  0.00     0.003 C 
HETATM   12  C   UNL     1      67.756   7.229   5.364  1.00  0.00     0.028 C 
HETATM   13  C   UNL     1      66.618   7.003   4.364  1.00  0.00     0.235 C 
HETATM   14  H   UNL     1      65.137   7.792   5.532  1.00  0.00     0.280 HD
ENDBRANCH   7   8
ENDBRANCH   1   7
BRANCH   3  15
HETATM   15  C   UNL     1      62.623  11.306   5.460  1.00  0.00     0.268 C 
BRANCH  15  16
HETATM   16  N   UNL     1      63.825  11.377   6.282  1.00  0.00    -0.075 N 
HETATM   17  H   UNL     1      64.499  10.683   5.960  1.00  0.00     0.274 HD
HETATM   18  H   UNL     1      63.583  11.191   7.255  1.00  0.00     0.274 HD
HETATM   19  H   UNL     1      64.234  12.308   6.206  1.00  0.00     0.274 HD
ENDBRANCH  15  16
ENDBRANCH   3  15
TORSDOF 4
ENDMDL
MODEL 3
REMARK VINA RESULT:      -5.0      1.677      3.052
REMARK  4 active torsions:
REMARK  status: ('A' for Active; 'I' for Inactive)
REMARK    1  A    between atoms: N_1  and  C_2 
REMARK    2  A    between atoms: C_2  and  C_3 
REMARK    3  A    between atoms: C_5  and  C_11 
REMARK    4  A    between atoms: N_6  and  C_11 
ROOT
HETATM    1  C   UNL     1      65.046   8.097   4.985  1.00  0.00    -0.032 A 
HETATM    2  C   UNL     1      64.127   9.157   4.936  1.00  0.00     0.017 A 
HETATM    3  C   UNL     1      63.043   9.134   4.045  1.00  0.00    -0.033 A 
HETATM    4  C   UNL     1      63.861   7.030   3.152  1.00  0.00     0.001 A 
HETATM    5  C   UNL     1      64.913   7.041   4.076  1.00  0.00     0.009 A 
HETATM    6  C   UNL     1      62.924   8.063   3.152  1.00  0.00     0.009 A 
ENDROOT
BRANCH   1   7
HETATM    7  C   UNL     1      66.135   8.078   6.047  1.00  0.00     0.273 C 
BRANCH   7   8
HETATM    8  N   UNL     1      66.383   6.733   6.612  1.00  0.00    -0.067 N 
HETATM    9  C   UNL     1      67.704   6.213   6.218  1.00  0.00     0.235 C 
HETATM   10  C   UNL     1      67.934   4.805   6.771  1.00  0.00     0.028 C 
HETATM   11  C   UNL     1      67.803   4.787   8.288  1.00  0.00     0.003 C 
HETATM   12  C   UNL     1      66.463   5.387   8.700  1.00  0.00     0.028 C 
HETATM   13  C   UNL     1      66.255   6.770   8.077  1.00  0.00     0.235 C 
HETATM   14  H   UNL     1      65.681   6.099   6.233  1.00  0.00     0.280 HD
ENDBRANCH   7   8
ENDBRANCH   1   7
BRANCH   3  15
HETATM   15  C   UNL     1      61.989  10.210   4.111  1.00  0.00     0.268 C 
BRANCH  15  16
HETATM   16  N   UNL     1      61.605  10.690   2.789  1.00  0.00    -0.075 N 
HETATM   17  H   UNL     1      60.852  10.110   2.422  1.00  0.00     0.274 HD
HETATM   18  H   UNL     1      62.409  10.640   2.163  1.00  0.00     0.274 HD
HETATM   19  H   UNL     1      61.288  11.656   2.858  1.00  0.00     0.274 HD
ENDBRANCH  15  16
ENDBRANCH   3  15
TORSDOF 4
ENDMDL
MODEL 4
REMARK VINA RESULT:      -4.9      1.425      2.402
REMARK  4 active torsions:
REMARK  status: ('A' for Active; 'I' for Inactive)
REMARK    1  A    between atoms: N_1  and  C_2 
REMARK    2  A    between atoms: C_2  and  C_3 
REMARK    3  A    between atoms: C_5  and  C_11 
REMARK    4  A    between atoms: N_6  and  C_11 
ROOT
HETATM    1  C   UNL     1      63.358   7.818   4.548  1.00  0.00    -0.032 A 
HETATM    2  C   UNL     1      62.967   9.167   4.516  1.00  0.00     0.017 A 
HETATM    3  C   UNL     1      62.406   9.731   3.359  1.00  0.00    -0.033 A 
HETATM    4  C   UNL     1      62.738   7.619   2.207  1.00  0.00     0.001 A 
HETATM    5  C   UNL     1      63.254   7.054   3.379  1.00  0.00     0.009 A 
HETATM    6  C   UNL     1      62.303   8.944   2.206  1.00  0.00     0.009 A 
ENDROOT
BRANCH   1   7
HETATM    7  C   UNL     1      63.838   7.192   5.848  1.00  0.00     0.273 C 
BRANCH   7   8
HETATM    8  N   UNL     1      65.204   6.629   5.761  1.00  0.00    -0.067 N 
HETATM    9  C   UNL     1      66.232   7.684   5.825  1.00  0.00     0.235 C 
HETATM   10  C   UNL     1      67.639   7.097   5.692  1.00  0.00     0.028 C 
HETATM   11  C   UNL     1      67.899   6.054   6.770  1.00  0.00     0.003 C 
HETATM   12  C   UNL     1      66.800   4.999   6.748  1.00  0.00     0.028 C 
HETATM   13  C   UNL     1      65.410   5.637   6.827  1.00  0.00     0.235 C 
HETATM   14  H   UNL     1      65.298   6.169   4.856  1.00  0.00     0.280 HD
ENDBRANCH   7   8
ENDBRANCH   1   7
BRANCH   3  15
HETATM   15  C   UNL     1      61.859  11.135   3.393  1.00  0.00     0.268 C 
BRANCH  15  16
HETATM   16  N   UNL     1      61.607  11.662   2.058  1.00  0.00    -0.075 N 
HETATM   17  H   UNL     1      61.063  10.987   1.522  1.00  0.00     0.274 HD
HETATM   18  H   UNL     1      62.496  11.834   1.587  1.00  0.00     0.274 HD
HETATM   19  H   UNL     1      61.088  12.536   2.131  1.00  0.00     0.274 HD
ENDBRANCH  15  16
ENDBRANCH   3  15
TORSDOF 4
ENDMDL
MODEL 5
REMARK VINA RESULT:      -4.9      1.591      6.270
REMARK  4 active torsions:
REMARK  status: ('A' for Active; 'I' for Inactive)
REMARK    1  A    between atoms: N_1  and  C_2 
REMARK    2  A    between atoms: C_2  and  C_3 
REMARK    3  A    between atoms: C_5  and  C_11 
REMARK    4  A    between atoms: N_6  and  C_11 
ROOT
HETATM    1  C   UNL     1      64.662   7.632   5.570  1.00  0.00    -0.032 A 
HETATM    2  C   UNL     1      64.955   6.890   6.725  1.00  0.00     0.017 A 
HETATM    3  C   UNL     1      66.282   6.604   7.085  1.00  0.00    -0.033 A 
HETATM    4  C   UNL     1      67.036   7.705   5.056  1.00  0.00     0.001 A 
HETATM    5  C   UNL     1      65.712   8.024   4.731  1.00  0.00     0.009 A 
HETATM    6  C   UNL     1      67.316   7.015   6.235  1.00  0.00     0.009 A 
ENDROOT
BRANCH   1   7
HETATM    7  C   UNL     1      63.230   8.045   5.270  1.00  0.00     0.273 C 
BRANCH   7   8
HETATM    8  N   UNL     1      63.072   8.712   3.959  1.00  0.00    -0.067 N 
HETATM    9  C   UNL     1      62.613   7.771   2.921  1.00  0.00     0.235 C 
HETATM   10  C   UNL     1      62.494   8.460   1.560  1.00  0.00     0.028 C 
HETATM   11  C   UNL     1      61.548   9.651   1.632  1.00  0.00     0.003 C 
HETATM   12  C   UNL     1      61.984  10.592   2.750  1.00  0.00     0.028 C 
HETATM   13  C   UNL     1      62.143   9.847   4.078  1.00  0.00     0.235 C 
HETATM   14  H   UNL     1      63.986   9.060   3.671  1.00  0.00     0.280 HD
ENDBRANCH   7   8
ENDBRANCH   1   7
BRANCH   3  15
HETATM   15  C   UNL     1      66.579   5.936   8.402  1.00  0.00     0.268 C 
BRANCH  15  16
HETATM   16  N   UNL     1      67.775   6.474   9.038  1.00  0.00    -0.075 N 
HETATM   17  H   UNL     1      68.600   6.013   8.657  1.00  0.00     0.274 HD
HETATM   18  H   UNL     1      67.728   6.311  10.044  1.00  0.00     0.274 HD
HETATM   19  H   UNL     1      67.833   7.476   8.859  1.00  0.00     0.274 HD
ENDBRANCH  15  16
ENDBRANCH   3  15
TORSDOF 4
ENDMDL
MODEL 6
REMARK VINA RESULT:      -4.8      1.750      6.103
REMARK  4 active torsions:
REMARK  status: ('A' for Active; 'I' for Inactive)
REMARK    1  A    between atoms: N_1  and  C_2 
REMARK    2  A    between atoms: C_2  and  C_3 
REMARK    3  A    between atoms: C_5  and  C_11 
REMARK    4  A    between atoms: N_6  and  C_11 
ROOT
HETATM    1  C   UNL     1      64.296   7.005   4.003  1.00  0.00    -0.032 A 
HETATM    2  C   UNL     1      65.213   7.556   4.912  1.00  0.00     0.017 A 
HETATM    3  C   UNL     1      66.547   7.120   4.950  1.00  0.00    -0.033 A 
HETATM    4  C   UNL     1      66.024   5.478   3.239  1.00  0.00     0.001 A 
HETATM    5  C   UNL     1      64.709   5.952   3.178  1.00  0.00     0.009 A 
HETATM    6  C   UNL     1      66.939   6.072   4.108  1.00  0.00     0.009 A 
ENDROOT
BRANCH   1   7
HETATM    7  C   UNL     1      62.895   7.583   3.887  1.00  0.00     0.273 C 
BRANCH   7   8
HETATM    8  N   UNL     1      62.866   8.950   3.319  1.00  0.00    -0.067 N 
HETATM    9  C   UNL     1      62.287   8.963   1.964  1.00  0.00     0.235 C 
HETATM   10  C   UNL     1      62.301  10.373   1.368  1.00  0.00     0.028 C 
HETATM   11  C   UNL     1      61.550  11.350   2.262  1.00  0.00     0.003 C 
HETATM   12  C   UNL     1      62.105  11.288   3.680  1.00  0.00     0.028 C 
HETATM   13  C   UNL     1      62.122   9.852   4.212  1.00  0.00     0.235 C 
HETATM   14  H   UNL     1      63.829   9.278   3.242  1.00  0.00     0.280 HD
ENDBRANCH   7   8
ENDBRANCH   1   7
BRANCH   3  15
HETATM   15  C   UNL     1      67.548   7.825   5.828  1.00  0.00     0.268 C 
BRANCH  15  16
HETATM   16  N   UNL     1      66.914   8.514   6.946  1.00  0.00    -0.075 N 
HETATM   17  H   UNL     1      66.252   9.202   6.590  1.00  0.00     0.274 HD
HETATM   18  H   UNL     1      67.627   8.985   7.503  1.00  0.00     0.274 HD
HETATM   19  H   UNL     1      66.422   7.836   7.527  1.00  0.00     0.274 HD
ENDBRANCH  15  16
ENDBRANCH   3  15
TORSDOF 4
ENDMDL
MODEL 7
REMARK VINA RESULT:      -4.6      2.199      5.940
REMARK  4 active torsions:
REMARK  status: ('A' for Active; 'I' for Inactive)
REMARK    1  A    between atoms: N_1  and  C_2 
REMARK    2  A    between atoms: C_2  and  C_3 
REMARK    3  A    between atoms: C_5  and  C_11 
REMARK    4  A    between atoms: N_6  and  C_11 
ROOT
HETATM    1  C   UNL     1      64.843   7.334   4.504  1.00  0.00    -0.032 A 
HETATM    2  C   UNL     1      65.423   6.200   3.912  1.00  0.00     0.017 A 
HETATM    3  C   UNL     1      66.753   5.841   4.184  1.00  0.00    -0.033 A 
HETATM    4  C   UNL     1      66.975   7.829   5.560  1.00  0.00     0.001 A 
HETATM    5  C   UNL     1      65.635   8.153   5.318  1.00  0.00     0.009 A 
HETATM    6  C   UNL     1      67.521   6.670   5.009  1.00  0.00     0.009 A 
ENDROOT
BRANCH   1   7
HETATM    7  C   UNL     1      63.366   7.631   4.303  1.00  0.00     0.273 C 
BRANCH   7   8
HETATM    8  N   UNL     1      63.114   8.811   3.446  1.00  0.00    -0.067 N 
HETATM    9  C   UNL     1      62.492   8.431   2.165  1.00  0.00     0.235 C 
HETATM   10  C   UNL     1      62.274   9.652   1.270  1.00  0.00     0.028 C 
HETATM   11  C   UNL     1      61.418  10.697   1.970  1.00  0.00     0.003 C 
HETATM   12  C   UNL     1      62.025  11.042   3.325  1.00  0.00     0.028 C 
HETATM   13  C   UNL     1      62.276   9.785   4.163  1.00  0.00     0.235 C 
HETATM   14  H   UNL     1      64.013   9.241   3.231  1.00  0.00     0.280 HD
ENDBRANCH   7   8
ENDBRANCH   1   7
BRANCH   3  15
HETATM   15  C   UNL     1      67.307   4.543   3.655  1.00  0.00     0.268 C 
BRANCH  15  16
HETATM   16  N   UNL     1      67.625   4.616   2.235  1.00  0.00    -0.075 N 
HETATM   17  H   UNL     1      68.370   3.955   2.019  1.00  0.00     0.274 HD
HETATM   18  H   UNL     1      67.932   5.561   2.003  1.00  0.00     0.274 HD
HETATM   19  H   UNL     1      66.796   4.385   1.688  1.00  0.00     0.274 HD
ENDBRANCH  15  16
ENDBRANCH   3  15
TORSDOF 4
ENDMDL
MODEL 8
REMARK VINA RESULT:      -4.6      1.618      2.508
REMARK  4 active torsions:
REMARK  status: ('A' for Active; 'I' for Inactive)
REMARK    1  A    between atoms: N_1  and  C_2 
REMARK    2  A    between atoms: C_2  and  C_3 
REMARK    3  A    between atoms: C_5  and  C_11 
REMARK    4  A    between atoms: N_6  and  C_11 
ROOT
HETATM    1  C   UNL     1      63.474   9.019   4.666  1.00  0.00    -0.032 A 
HETATM    2  C   UNL     1      62.943   8.693   3.408  1.00  0.00     0.017 A 
HETATM    3  C   UNL     1      62.164   9.614   2.690  1.00  0.00    -0.033 A 
HETATM    4  C   UNL     1      62.340  11.165   4.551  1.00  0.00     0.001 A 
HETATM    5  C   UNL     1      63.154  10.256   5.238  1.00  0.00     0.009 A 
HETATM    6  C   UNL     1      61.865  10.849   3.278  1.00  0.00     0.009 A 
ENDROOT
BRANCH   1   7
HETATM    7  C   UNL     1      64.424   8.060   5.366  1.00  0.00     0.273 C 
BRANCH   7   8
HETATM    8  N   UNL     1      63.957   6.655   5.354  1.00  0.00    -0.067 N 
HETATM    9  C   UNL     1      65.047   5.718   5.680  1.00  0.00     0.235 C 
HETATM   10  C   UNL     1      64.566   4.266   5.623  1.00  0.00     0.028 C 
HETATM   11  C   UNL     1      63.391   4.043   6.566  1.00  0.00     0.003 C 
HETATM   12  C   UNL     1      62.291   5.056   6.272  1.00  0.00     0.028 C 
HETATM   13  C   UNL     1      62.831   6.489   6.286  1.00  0.00     0.235 C 
HETATM   14  H   UNL     1      63.642   6.437   4.409  1.00  0.00     0.280 HD
ENDBRANCH   7   8
ENDBRANCH   1   7
BRANCH   3  15
HETATM   15  C   UNL     1      61.728   9.299   1.282  1.00  0.00     0.268 C 
BRANCH  15  16
HETATM   16  N   UNL     1      60.362   8.794   1.226  1.00  0.00    -0.075 N 
HETATM   17  H   UNL     1      60.378   7.782   1.106  1.00  0.00     0.274 HD
HETATM   18  H   UNL     1      59.873   9.222   0.440  1.00  0.00     0.274 HD
HETATM   19  H   UNL     1      59.878   9.026   2.093  1.00  0.00     0.274 HD
ENDBRANCH  15  16
ENDBRANCH   3  15
TORSDOF 4
ENDMDL
MODEL 9
REMARK VINA RESULT:      -4.6      3.624      5.260
REMARK  4 active torsions:
REMARK  status: ('A' for Active; 'I' for Inactive)
REMARK    1  A    between atoms: N_1  and  C_2 
REMARK    2  A    between atoms: C_2  and  C_3 
REMARK    3  A    between atoms: C_5  and  C_11 
REMARK    4  A    between atoms: N_6  and  C_11 
ROOT
HETATM    1  C   UNL     1      61.415   7.901   3.058  1.00  0.00    -0.032 A 
HETATM    2  C   UNL     1      61.782   8.898   3.977  1.00  0.00     0.017 A 
HETATM    3  C   UNL     1      62.058  10.208   3.553  1.00  0.00    -0.033 A 
HETATM    4  C   UNL     1      61.720   9.500   1.255  1.00  0.00     0.001 A 
HETATM    5  C   UNL     1      61.402   8.210   1.693  1.00  0.00     0.009 A 
HETATM    6  C   UNL     1      62.028  10.494   2.183  1.00  0.00     0.009 A 
ENDROOT
BRANCH   1   7
HETATM    7  C   UNL     1      60.991   6.527   3.551  1.00  0.00     0.273 C 
BRANCH   7   8
HETATM    8  N   UNL     1      60.283   6.559   4.850  1.00  0.00    -0.067 N 
HETATM    9  C   UNL     1      58.877   6.138   4.714  1.00  0.00     0.235 C 
HETATM   10  C   UNL     1      58.142   6.216   6.054  1.00  0.00     0.028 C 
HETATM   11  C   UNL     1      58.837   5.365   7.108  1.00  0.00     0.003 C 
HETATM   12  C   UNL     1      60.308   5.755   7.202  1.00  0.00     0.028 C 
HETATM   13  C   UNL     1      60.986   5.716   5.829  1.00  0.00     0.235 C 
HETATM   14  H   UNL     1      60.281   7.523   5.183  1.00  0.00     0.280 HD
ENDBRANCH   7   8
ENDBRANCH   1   7
BRANCH   3  15
HETATM   15  C   UNL     1      62.304  11.293   4.568  1.00  0.00     0.268 C 
BRANCH  15  16
HETATM   16  N   UNL     1      63.079  10.819   5.708  1.00  0.00    -0.075 N 
HETATM   17  H   UNL     1      64.015  11.222   5.675  1.00  0.00     0.274 HD
HETATM   18  H   UNL     1      63.145   9.802   5.674  1.00  0.00     0.274 HD
HETATM   19  H   UNL     1      62.619  11.101   6.573  1.00  0.00     0.274 HD
ENDBRANCH  15  16
ENDBRANCH   3  15
TORSDOF 4
ENDMDL
