MODEL 1
REMARK VINA RESULT:      -4.4      0.000      0.000
REMARK  3 active torsions:
REMARK  status: ('A' for Active; 'I' for Inactive)
REMARK    1  A    between atoms: N_1  and  C_3 
REMARK    2  A    between atoms: C_2  and  C_3 
REMARK    3  A    between atoms: C_2  and  N_6 
ROOT
HETATM    1  N   UNL     1      63.384   8.726   5.528  1.00  0.00    -0.069 N 
HETATM    2  C   UNL     1      62.900  10.083   5.819  1.00  0.00     0.235 C 
HETATM    3  C   UNL     1      62.424   8.045   4.663  1.00  0.00     0.235 C 
HETATM    4  C   UNL     1      62.137   8.758   3.345  1.00  0.00     0.032 C 
HETATM    5  C   UNL     1      62.665  10.938   4.569  1.00  0.00     0.032 C 
HETATM    6  C   UNL     1      61.789  10.242   3.516  1.00  0.00    -0.015 C 
HETATM    7  C   UNL     1      61.912  10.958   2.167  1.00  0.00     0.010 C 
HETATM    8  H   UNL     1      63.423   8.159   6.376  1.00  0.00     0.280 HD
ENDROOT
BRANCH   1   9
HETATM    9  C   UNL     1      64.800   8.730   5.093  1.00  0.00     0.272 C 
BRANCH   9  10
HETATM   10  C   UNL     1      65.855   7.840   5.856  1.00  0.00     0.140 C 
HETATM   11  C   UNL     1      65.094   6.802   6.706  1.00  0.00     0.047 C 
HETATM   12  C   UNL     1      66.774   7.089   4.875  1.00  0.00     0.047 C 
BRANCH  10  13
HETATM   13  N   UNL     1      66.668   8.599   6.822  1.00  0.00    -0.070 N 
HETATM   14  H   UNL     1      66.911   9.506   6.423  1.00  0.00     0.275 HD
HETATM   15  H   UNL     1      67.520   8.079   7.030  1.00  0.00     0.275 HD
HETATM   16  H   UNL     1      66.136   8.736   7.680  1.00  0.00     0.275 HD
ENDBRANCH  10  13
ENDBRANCH   9  10
ENDBRANCH   1   9
TORSDOF 3
ENDMDL
MODEL 2
REMARK VINA RESULT:      -4.1      1.357      1.830
REMARK  3 active torsions:
REMARK  status: ('A' for Active; 'I' for Inactive)
REMARK    1  A    between atoms: N_1  and  C_3 
REMARK    2  A    between atoms: C_2  and  C_3 
REMARK    3  A    between atoms: C_2  and  N_6 
ROOT
HETATM    1  N   UNL     1      64.178   8.394   5.794  1.00  0.00    -0.069 N 
HETATM    2  C   UNL     1      63.529   9.530   5.126  1.00  0.00     0.235 C 
HETATM    3  C   UNL     1      63.179   7.367   6.084  1.00  0.00     0.235 C 
HETATM    4  C   UNL     1      62.421   6.854   4.864  1.00  0.00     0.032 C 
HETATM    5  C   UNL     1      62.810   9.157   3.825  1.00  0.00     0.032 C 
HETATM    6  C   UNL     1      61.845   7.973   3.987  1.00  0.00    -0.015 C 
HETATM    7  C   UNL     1      61.465   7.407   2.615  1.00  0.00     0.010 C 
HETATM    8  H   UNL     1      64.549   8.665   6.706  1.00  0.00     0.280 HD
ENDROOT
BRANCH   1   9
HETATM    9  C   UNL     1      65.401   7.961   5.078  1.00  0.00     0.272 C 
BRANCH   9  10
HETATM   10  C   UNL     1      66.734   7.718   5.884  1.00  0.00     0.140 C 
HETATM   11  C   UNL     1      66.727   6.269   6.414  1.00  0.00     0.047 C 
HETATM   12  C   UNL     1      67.974   7.906   4.993  1.00  0.00     0.047 C 
BRANCH  10  13
HETATM   13  N   UNL     1      66.850   8.561   7.087  1.00  0.00    -0.070 N 
HETATM   14  H   UNL     1      67.818   8.864   7.198  1.00  0.00     0.275 HD
HETATM   15  H   UNL     1      66.565   8.025   7.906  1.00  0.00     0.275 HD
HETATM   16  H   UNL     1      66.247   9.378   6.989  1.00  0.00     0.275 HD
ENDBRANCH  10  13
ENDBRANCH   9  10
ENDBRANCH   1   9
TORSDOF 3
ENDMDL
MODEL 3
REMARK VINA RESULT:      -4.0      2.311      3.484
REMARK  3 active torsions:
REMARK  status: ('A' for Active; 'I' for Inactive)
REMARK    1  A    between atoms: N_1  and  C_3 
REMARK    2  A    between atoms: C_2  and  C_3 
REMARK    3  A    between atoms: C_2  and  N_6 
ROOT
HETATM    1  N   UNL     1      65.005   6.285   6.087  1.00  0.00    -0.069 N 
HETATM    2  C   UNL     1      63.538   6.231   6.164  1.00  0.00     0.235 C 
HETATM    3  C   UNL     1      65.399   6.960   4.852  1.00  0.00     0.235 C 
HETATM    4  C   UNL     1      64.845   8.373   4.694  1.00  0.00     0.032 C 
HETATM    5  C   UNL     1      62.863   7.606   6.114  1.00  0.00     0.032 C 
HETATM    6  C   UNL     1      63.332   8.467   4.931  1.00  0.00    -0.015 C 
HETATM    7  C   UNL     1      62.936   9.930   5.150  1.00  0.00     0.010 C 
HETATM    8  H   UNL     1      65.404   5.349   6.014  1.00  0.00     0.280 HD
ENDROOT
BRANCH   1   9
HETATM    9  C   UNL     1      65.603   6.781   7.347  1.00  0.00     0.272 C 
BRANCH   9  10
HETATM   10  C   UNL     1      66.601   5.863   8.153  1.00  0.00     0.140 C 
HETATM   11  C   UNL     1      67.876   5.668   7.308  1.00  0.00     0.047 C 
HETATM   12  C   UNL     1      66.997   6.503   9.495  1.00  0.00     0.047 C 
BRANCH  10  13
HETATM   13  N   UNL     1      66.084   4.501   8.381  1.00  0.00    -0.070 N 
HETATM   14  H   UNL     1      65.248   4.548   8.963  1.00  0.00     0.275 HD
HETATM   15  H   UNL     1      66.796   3.944   8.852  1.00  0.00     0.275 HD
HETATM   16  H   UNL     1      65.853   4.071   7.486  1.00  0.00     0.275 HD
ENDBRANCH  10  13
ENDBRANCH   9  10
ENDBRANCH   1   9
TORSDOF 3
ENDMDL
MODEL 4
REMARK VINA RESULT:      -3.9      1.588      5.028
REMARK  3 active torsions:
REMARK  status: ('A' for Active; 'I' for Inactive)
REMARK    1  A    between atoms: N_1  and  C_3 
REMARK    2  A    between atoms: C_2  and  C_3 
REMARK    3  A    between atoms: C_2  and  N_6 
ROOT
HETATM    1  N   UNL     1      63.263   8.690   5.015  1.00  0.00    -0.069 N 
HETATM    2  C   UNL     1      62.777   7.644   5.927  1.00  0.00     0.235 C 
HETATM    3  C   UNL     1      64.670   8.963   5.298  1.00  0.00     0.235 C 
HETATM    4  C   UNL     1      65.589   7.750   5.191  1.00  0.00     0.032 C 
HETATM    5  C   UNL     1      63.565   6.332   5.842  1.00  0.00     0.032 C 
HETATM    6  C   UNL     1      65.083   6.529   5.969  1.00  0.00    -0.015 C 
HETATM    7  C   UNL     1      65.822   5.274   5.495  1.00  0.00     0.010 C 
HETATM    8  H   UNL     1      62.784   9.575   5.181  1.00  0.00     0.280 HD
ENDROOT
BRANCH   1   9
HETATM    9  C   UNL     1      62.902   8.401   3.608  1.00  0.00     0.272 C 
BRANCH   9  10
HETATM   10  C   UNL     1      61.805   9.275   2.887  1.00  0.00     0.140 C 
HETATM   11  C   UNL     1      61.924  10.726   3.398  1.00  0.00     0.047 C 
HETATM   12  C   UNL     1      61.999   9.277   1.361  1.00  0.00     0.047 C 
BRANCH  10  13
HETATM   13  N   UNL     1      60.428   8.868   3.216  1.00  0.00    -0.070 N 
HETATM   14  H   UNL     1      59.774   9.357   2.605  1.00  0.00     0.275 HD
HETATM   15  H   UNL     1      60.228   9.105   4.188  1.00  0.00     0.275 HD
HETATM   16  H   UNL     1      60.330   7.862   3.085  1.00  0.00     0.275 HD
ENDBRANCH  10  13
ENDBRANCH   9  10
ENDBRANCH   1   9
TORSDOF 3
ENDMDL
MODEL 5
REMARK VINA RESULT:      -3.9      1.574      5.404
REMARK  3 active torsions:
REMARK  status: ('A' for Active; 'I' for Inactive)
REMARK    1  A    between atoms: N_1  and  C_3 
REMARK    2  A    between atoms: C_2  and  C_3 
REMARK    3  A    between atoms: C_2  and  N_6 
ROOT
HETATM    1  N   UNL     1      65.555   7.855   6.284  1.00  0.00    -0.069 N 
HETATM    2  C   UNL     1      65.257   6.796   7.259  1.00  0.00     0.235 C 
HETATM    3  C   UNL     1      67.002   7.955   6.106  1.00  0.00     0.235 C 
HETATM    4  C   UNL     1      67.679   6.664   5.654  1.00  0.00     0.032 C 
HETATM    5  C   UNL     1      65.804   5.419   6.867  1.00  0.00     0.032 C 
HETATM    6  C   UNL     1      67.296   5.444   6.502  1.00  0.00    -0.015 C 
HETATM    7  C   UNL     1      67.682   4.160   5.759  1.00  0.00     0.010 C 
HETATM    8  H   UNL     1      65.270   8.770   6.634  1.00  0.00     0.280 HD
ENDROOT
BRANCH   1   9
HETATM    9  C   UNL     1      64.733   7.721   5.059  1.00  0.00     0.272 C 
BRANCH   9  10
HETATM   10  C   UNL     1      63.286   8.348   5.017  1.00  0.00     0.140 C 
HETATM   11  C   UNL     1      62.998   8.813   3.575  1.00  0.00     0.047 C 
HETATM   12  C   UNL     1      62.215   7.321   5.422  1.00  0.00     0.047 C 
BRANCH  10  13
HETATM   13  N   UNL     1      63.153   9.562   5.842  1.00  0.00    -0.070 N 
HETATM   14  H   UNL     1      62.165   9.780   5.968  1.00  0.00     0.275 HD
HETATM   15  H   UNL     1      63.617  10.341   5.374  1.00  0.00     0.275 HD
HETATM   16  H   UNL     1      63.587   9.405   6.751  1.00  0.00     0.275 HD
ENDBRANCH  10  13
ENDBRANCH   9  10
ENDBRANCH   1   9
TORSDOF 3
ENDMDL
MODEL 6
REMARK VINA RESULT:      -3.9      2.590      6.268
REMARK  3 active torsions:
REMARK  status: ('A' for Active; 'I' for Inactive)
REMARK    1  A    between atoms: N_1  and  C_3 
REMARK    2  A    between atoms: C_2  and  C_3 
REMARK    3  A    between atoms: C_2  and  N_6 
ROOT
HETATM    1  N   UNL     1      66.517   6.966   6.790  1.00  0.00    -0.069 N 
HETATM    2  C   UNL     1      66.930   7.270   8.168  1.00  0.00     0.235 C 
HETATM    3  C   UNL     1      67.525   6.117   6.159  1.00  0.00     0.235 C 
HETATM    4  C   UNL     1      67.802   4.807   6.890  1.00  0.00     0.032 C 
HETATM    5  C   UNL     1      67.146   6.027   9.038  1.00  0.00     0.032 C 
HETATM    6  C   UNL     1      68.074   4.989   8.389  1.00  0.00    -0.015 C 
HETATM    7  C   UNL     1      67.942   3.639   9.103  1.00  0.00     0.010 C 
HETATM    8  H   UNL     1      66.490   7.811   6.219  1.00  0.00     0.280 HD
ENDROOT
BRANCH   1   9
HETATM    9  C   UNL     1      65.111   6.504   6.727  1.00  0.00     0.272 C 
BRANCH   9  10
HETATM   10  C   UNL     1      64.079   7.263   5.808  1.00  0.00     0.140 C 
HETATM   11  C   UNL     1      64.821   8.402   5.078  1.00  0.00     0.047 C 
HETATM   12  C   UNL     1      63.467   6.325   4.752  1.00  0.00     0.047 C 
BRANCH  10  13
HETATM   13  N   UNL     1      63.006   7.933   6.565  1.00  0.00    -0.070 N 
HETATM   14  H   UNL     1      62.639   7.294   7.270  1.00  0.00     0.275 HD
HETATM   15  H   UNL     1      62.259   8.202   5.926  1.00  0.00     0.275 HD
HETATM   16  H   UNL     1      63.380   8.764   7.020  1.00  0.00     0.275 HD
ENDBRANCH  10  13
ENDBRANCH   9  10
ENDBRANCH   1   9
TORSDOF 3
ENDMDL
MODEL 7
REMARK VINA RESULT:      -3.7     12.156     14.041
REMARK  3 active torsions:
REMARK  status: ('A' for Active; 'I' for Inactive)
REMARK    1  A    between atoms: N_1  and  C_3 
REMARK    2  A    between atoms: C_2  and  C_3 
REMARK    3  A    between atoms: C_2  and  N_6 
ROOT
HETATM    1  N   UNL     1      57.280   1.092  14.204  1.00  0.00    -0.069 N 
HETATM    2  C   UNL     1      57.492  -0.336  13.926  1.00  0.00     0.235 C 
HETATM    3  C   UNL     1      58.570   1.732  14.455  1.00  0.00     0.235 C 
HETATM    4  C   UNL     1      59.580   1.596  13.320  1.00  0.00     0.032 C 
HETATM    5  C   UNL     1      58.419  -0.604  12.735  1.00  0.00     0.032 C 
HETATM    6  C   UNL     1      59.751   0.155  12.823  1.00  0.00    -0.015 C 
HETATM    7  C   UNL     1      60.450   0.160  11.459  1.00  0.00     0.010 C 
HETATM    8  H   UNL     1      56.749   1.225  15.065  1.00  0.00     0.280 HD
ENDROOT
BRANCH   1   9
HETATM    9  C   UNL     1      56.399   1.724  13.195  1.00  0.00     0.272 C 
BRANCH   9  10
HETATM   10  C   UNL     1      54.962   2.219  13.613  1.00  0.00     0.140 C 
HETATM   11  C   UNL     1      54.392   3.086  12.471  1.00  0.00     0.047 C 
HETATM   12  C   UNL     1      54.005   1.038  13.853  1.00  0.00     0.047 C 
BRANCH  10  13
HETATM   13  N   UNL     1      54.970   3.103  14.793  1.00  0.00    -0.070 N 
HETATM   14  H   UNL     1      55.442   3.977  14.559  1.00  0.00     0.275 HD
HETATM   15  H   UNL     1      55.465   2.643  15.556  1.00  0.00     0.275 HD
HETATM   16  H   UNL     1      54.012   3.299  15.078  1.00  0.00     0.275 HD
ENDBRANCH  10  13
ENDBRANCH   9  10
ENDBRANCH   1   9
TORSDOF 3
ENDMDL
MODEL 8
REMARK VINA RESULT:      -3.7      3.438      5.492
REMARK  3 active torsions:
REMARK  status: ('A' for Active; 'I' for Inactive)
REMARK    1  A    between atoms: N_1  and  C_3 
REMARK    2  A    between atoms: C_2  and  C_3 
REMARK    3  A    between atoms: C_2  and  N_6 
ROOT
HETATM    1  N   UNL     1      60.966   7.515   3.302  1.00  0.00    -0.069 N 
HETATM    2  C   UNL     1      61.328   7.674   1.886  1.00  0.00     0.235 C 
HETATM    3  C   UNL     1      61.885   8.296   4.127  1.00  0.00     0.235 C 
HETATM    4  C   UNL     1      61.931   9.785   3.794  1.00  0.00     0.032 C 
HETATM    5  C   UNL     1      61.315   9.127   1.402  1.00  0.00     0.032 C 
HETATM    6  C   UNL     1      62.129  10.071   2.300  1.00  0.00    -0.015 C 
HETATM    7  C   UNL     1      61.766  11.530   2.003  1.00  0.00     0.010 C 
HETATM    8  H   UNL     1      61.093   6.550   3.609  1.00  0.00     0.280 HD
ENDROOT
BRANCH   1   9
HETATM    9  C   UNL     1      59.517   7.723   3.525  1.00  0.00     0.272 C 
BRANCH   9  10
HETATM   10  C   UNL     1      58.621   6.523   4.019  1.00  0.00     0.140 C 
HETATM   11  C   UNL     1      59.107   6.095   5.419  1.00  0.00     0.047 C 
HETATM   12  C   UNL     1      57.140   6.928   4.118  1.00  0.00     0.047 C 
BRANCH  10  13
HETATM   13  N   UNL     1      58.755   5.315   3.185  1.00  0.00    -0.070 N 
HETATM   14  H   UNL     1      58.753   4.488   3.782  1.00  0.00     0.275 HD
HETATM   15  H   UNL     1      59.632   5.358   2.666  1.00  0.00     0.275 HD
HETATM   16  H   UNL     1      57.975   5.265   2.531  1.00  0.00     0.275 HD
ENDBRANCH  10  13
ENDBRANCH   9  10
ENDBRANCH   1   9
TORSDOF 3
ENDMDL
MODEL 9
REMARK VINA RESULT:      -3.7      2.759      3.916
REMARK  3 active torsions:
REMARK  status: ('A' for Active; 'I' for Inactive)
REMARK    1  A    between atoms: N_1  and  C_3 
REMARK    2  A    between atoms: C_2  and  C_3 
REMARK    3  A    between atoms: C_2  and  N_6 
ROOT
HETATM    1  N   UNL     1      64.729   6.519   5.829  1.00  0.00    -0.069 N 
HETATM    2  C   UNL     1      64.124   5.233   5.455  1.00  0.00     0.235 C 
HETATM    3  C   UNL     1      63.802   7.602   5.507  1.00  0.00     0.235 C 
HETATM    4  C   UNL     1      62.434   7.488   6.174  1.00  0.00     0.032 C 
HETATM    5  C   UNL     1      62.782   4.956   6.140  1.00  0.00     0.032 C 
HETATM    6  C   UNL     1      61.780   6.112   5.996  1.00  0.00    -0.015 C 
HETATM    7  C   UNL     1      60.637   5.952   7.004  1.00  0.00     0.010 C 
HETATM    8  H   UNL     1      65.562   6.711   5.271  1.00  0.00     0.280 HD
ENDROOT
BRANCH   1   9
HETATM    9  C   UNL     1      65.278   6.488   7.204  1.00  0.00     0.272 C 
BRANCH   9  10
HETATM   10  C   UNL     1      66.753   6.979   7.468  1.00  0.00     0.140 C 
HETATM   11  C   UNL     1      67.088   6.741   8.955  1.00  0.00     0.047 C 
HETATM   12  C   UNL     1      67.768   6.205   6.609  1.00  0.00     0.047 C 
BRANCH  10  13
HETATM   13  N   UNL     1      66.930   8.428   7.267  1.00  0.00    -0.070 N 
HETATM   14  H   UNL     1      66.058   8.910   7.484  1.00  0.00     0.275 HD
HETATM   15  H   UNL     1      67.184   8.606   6.295  1.00  0.00     0.275 HD
HETATM   16  H   UNL     1      67.669   8.769   7.880  1.00  0.00     0.275 HD
ENDBRANCH  10  13
ENDBRANCH   9  10
ENDBRANCH   1   9
TORSDOF 3
ENDMDL
