MODEL 1
REMARK VINA RESULT:      -4.9      0.000      0.000
REMARK  1 active torsions:
REMARK  status: ('A' for Active; 'I' for Inactive)
REMARK       I    between atoms: C_1  and  N_2 
REMARK    1  A    between atoms: C_1  and  C_5 
ROOT
HETATM    1  N   UNL     1      67.906   6.984   6.605  1.00  0.00    -0.075 N 
HETATM    2  C   UNL     1      65.435   7.211   5.045  1.00  0.00     0.081 C 
HETATM    3  C   UNL     1      66.619   7.037   7.296  1.00  0.00     0.233 C 
HETATM    4  C   UNL     1      67.886   7.826   5.409  1.00  0.00     0.233 C 
HETATM    5  C   UNL     1      65.491   6.512   6.409  1.00  0.00     0.041 C 
HETATM    6  C   UNL     1      66.827   7.347   4.421  1.00  0.00     0.041 C 
HETATM    7  H   UNL     1      68.638   7.313   7.234  1.00  0.00     0.277 HD
HETATM    8  H   UNL     1      68.088   6.020   6.324  1.00  0.00     0.277 HD
ENDROOT
BRANCH   2   9
HETATM    9  C   UNL     1      64.729   8.569   5.144  1.00  0.00     0.224 C 
HETATM   10  N   UNL     1      63.635   8.761   4.324  1.00  0.00    -0.352 N 
HETATM   11  C   UNL     1      62.919  10.021   4.309  1.00  0.00     0.126 C 
HETATM   12  C   UNL     1      63.202   7.908   3.230  1.00  0.00     0.126 C 
HETATM   13  C   UNL     1      61.609   9.686   3.615  1.00  0.00     0.021 C 
HETATM   14  C   UNL     1      62.004   8.614   2.605  1.00  0.00     0.021 C 
HETATM   15  O   UNL     1      65.092   9.434   5.944  1.00  0.00    -0.273 OA
ENDBRANCH   2   9
TORSDOF 1
ENDMDL
MODEL 2
REMARK VINA RESULT:      -4.4      2.020      3.039
REMARK  1 active torsions:
REMARK  status: ('A' for Active; 'I' for Inactive)
REMARK       I    between atoms: C_1  and  N_2 
REMARK    1  A    between atoms: C_1  and  C_5 
ROOT
HETATM    1  N   UNL     1      65.165   6.123   6.152  1.00  0.00    -0.075 N 
HETATM    2  C   UNL     1      63.421   8.346   5.371  1.00  0.00     0.081 C 
HETATM    3  C   UNL     1      65.645   7.113   5.190  1.00  0.00     0.233 C 
HETATM    4  C   UNL     1      63.732   5.885   5.977  1.00  0.00     0.233 C 
HETATM    5  C   UNL     1      64.950   8.460   5.387  1.00  0.00     0.041 C 
HETATM    6  C   UNL     1      62.933   7.162   6.213  1.00  0.00     0.041 C 
HETATM    7  H   UNL     1      65.669   5.248   6.012  1.00  0.00     0.277 HD
HETATM    8  H   UNL     1      65.326   6.477   7.096  1.00  0.00     0.277 HD
ENDROOT
BRANCH   2   9
HETATM    9  C   UNL     1      62.882   8.273   3.937  1.00  0.00     0.224 C 
HETATM   10  N   UNL     1      62.473   9.462   3.366  1.00  0.00    -0.352 N 
HETATM   11  C   UNL     1      61.912   9.502   2.031  1.00  0.00     0.126 C 
HETATM   12  C   UNL     1      62.296  10.738   4.039  1.00  0.00     0.126 C 
HETATM   13  C   UNL     1      61.976  10.972   1.653  1.00  0.00     0.021 C 
HETATM   14  C   UNL     1      61.754  11.692   2.979  1.00  0.00     0.021 C 
HETATM   15  O   UNL     1      62.854   7.215   3.306  1.00  0.00    -0.273 OA
ENDBRANCH   2   9
TORSDOF 1
ENDMDL
MODEL 3
REMARK VINA RESULT:      -4.4      1.609      5.160
REMARK  1 active torsions:
REMARK  status: ('A' for Active; 'I' for Inactive)
REMARK       I    between atoms: C_1  and  N_2 
REMARK    1  A    between atoms: C_1  and  C_5 
ROOT
HETATM    1  N   UNL     1      62.233   8.557   3.658  1.00  0.00    -0.075 N 
HETATM    2  C   UNL     1      64.810   7.935   4.910  1.00  0.00     0.081 C 
HETATM    3  C   UNL     1      62.677   9.330   4.817  1.00  0.00     0.233 C 
HETATM    4  C   UNL     1      62.657   7.162   3.774  1.00  0.00     0.233 C 
HETATM    5  C   UNL     1      64.202   9.343   4.923  1.00  0.00     0.041 C 
HETATM    6  C   UNL     1      64.178   7.056   3.825  1.00  0.00     0.041 C 
HETATM    7  H   UNL     1      61.215   8.594   3.602  1.00  0.00     0.277 HD
HETATM    8  H   UNL     1      62.648   8.958   2.817  1.00  0.00     0.277 HD
ENDROOT
BRANCH   2   9
HETATM    9  C   UNL     1      64.716   7.275   6.291  1.00  0.00     0.224 C 
HETATM   10  N   UNL     1      65.885   6.755   6.811  1.00  0.00    -0.352 N 
HETATM   11  C   UNL     1      65.901   6.075   8.091  1.00  0.00     0.126 C 
HETATM   12  C   UNL     1      67.146   6.572   6.113  1.00  0.00     0.126 C 
HETATM   13  C   UNL     1      67.375   6.028   8.458  1.00  0.00     0.021 C 
HETATM   14  C   UNL     1      68.075   5.888   7.110  1.00  0.00     0.021 C 
HETATM   15  O   UNL     1      63.661   7.245   6.927  1.00  0.00    -0.273 OA
ENDBRANCH   2   9
TORSDOF 1
ENDMDL
MODEL 4
REMARK VINA RESULT:      -4.3      1.323      1.551
REMARK  1 active torsions:
REMARK  status: ('A' for Active; 'I' for Inactive)
REMARK       I    between atoms: C_1  and  N_2 
REMARK    1  A    between atoms: C_1  and  C_5 
ROOT
HETATM    1  N   UNL     1      67.093   5.129   7.828  1.00  0.00    -0.075 N 
HETATM    2  C   UNL     1      66.186   6.494   5.397  1.00  0.00     0.081 C 
HETATM    3  C   UNL     1      65.662   5.319   7.599  1.00  0.00     0.233 C 
HETATM    4  C   UNL     1      67.854   6.270   7.318  1.00  0.00     0.233 C 
HETATM    5  C   UNL     1      65.348   5.422   6.106  1.00  0.00     0.041 C 
HETATM    6  C   UNL     1      67.659   6.428   5.814  1.00  0.00     0.041 C 
HETATM    7  H   UNL     1      67.262   5.035   8.829  1.00  0.00     0.277 HD
HETATM    8  H   UNL     1      67.396   4.287   7.338  1.00  0.00     0.277 HD
ENDROOT
BRANCH   2   9
HETATM    9  C   UNL     1      65.603   7.894   5.621  1.00  0.00     0.224 C 
HETATM   10  N   UNL     1      64.492   8.231   4.872  1.00  0.00    -0.352 N 
HETATM   11  C   UNL     1      63.885   9.543   4.975  1.00  0.00     0.126 C 
HETATM   12  C   UNL     1      63.940   7.493   3.748  1.00  0.00     0.126 C 
HETATM   13  C   UNL     1      62.521   9.364   4.329  1.00  0.00     0.021 C 
HETATM   14  C   UNL     1      62.778   8.335   3.232  1.00  0.00     0.021 C 
HETATM   15  O   UNL     1      66.073   8.670   6.456  1.00  0.00    -0.273 OA
ENDBRANCH   2   9
TORSDOF 1
ENDMDL
MODEL 5
REMARK VINA RESULT:      -4.2      1.564      5.094
REMARK  1 active torsions:
REMARK  status: ('A' for Active; 'I' for Inactive)
REMARK       I    between atoms: C_1  and  N_2 
REMARK    1  A    between atoms: C_1  and  C_5 
ROOT
HETATM    1  N   UNL     1      60.424   8.401   3.516  1.00  0.00    -0.075 N 
HETATM    2  C   UNL     1      63.313   7.918   3.388  1.00  0.00     0.081 C 
HETATM    3  C   UNL     1      61.342   9.535   3.428  1.00  0.00     0.233 C 
HETATM    4  C   UNL     1      61.009   7.324   4.315  1.00  0.00     0.233 C 
HETATM    5  C   UNL     1      62.649   9.140   2.741  1.00  0.00     0.041 C 
HETATM    6  C   UNL     1      62.296   6.809   3.679  1.00  0.00     0.041 C 
HETATM    7  H   UNL     1      59.555   8.706   3.952  1.00  0.00     0.277 HD
HETATM    8  H   UNL     1      60.244   8.050   2.575  1.00  0.00     0.277 HD
ENDROOT
BRANCH   2   9
HETATM    9  C   UNL     1      64.091   8.310   4.650  1.00  0.00     0.224 C 
HETATM   10  N   UNL     1      65.356   7.774   4.791  1.00  0.00    -0.352 N 
HETATM   11  C   UNL     1      66.162   8.047   5.964  1.00  0.00     0.126 C 
HETATM   12  C   UNL     1      65.951   6.717   3.991  1.00  0.00     0.126 C 
HETATM   13  C   UNL     1      67.562   7.625   5.549  1.00  0.00     0.021 C 
HETATM   14  C   UNL     1      67.316   6.446   4.613  1.00  0.00     0.021 C 
HETATM   15  O   UNL     1      63.632   9.099   5.479  1.00  0.00    -0.273 OA
ENDBRANCH   2   9
TORSDOF 1
ENDMDL
MODEL 6
REMARK VINA RESULT:      -4.1      3.201      3.835
REMARK  1 active torsions:
REMARK  status: ('A' for Active; 'I' for Inactive)
REMARK       I    between atoms: C_1  and  N_2 
REMARK    1  A    between atoms: C_1  and  C_5 
ROOT
HETATM    1  N   UNL     1      61.694   4.450   6.672  1.00  0.00    -0.075 N 
HETATM    2  C   UNL     1      62.214   6.676   4.837  1.00  0.00     0.081 C 
HETATM    3  C   UNL     1      60.818   5.619   6.690  1.00  0.00     0.233 C 
HETATM    4  C   UNL     1      63.076   4.843   6.393  1.00  0.00     0.233 C 
HETATM    5  C   UNL     1      60.806   6.325   5.335  1.00  0.00     0.041 C 
HETATM    6  C   UNL     1      63.188   5.508   5.025  1.00  0.00     0.041 C 
HETATM    7  H   UNL     1      61.655   3.987   7.580  1.00  0.00     0.277 HD
HETATM    8  H   UNL     1      61.380   3.815   5.938  1.00  0.00     0.277 HD
ENDROOT
BRANCH   2   9
HETATM    9  C   UNL     1      62.737   7.955   5.503  1.00  0.00     0.224 C 
HETATM   10  N   UNL     1      62.500   9.142   4.839  1.00  0.00    -0.352 N 
HETATM   11  C   UNL     1      62.985  10.405   5.360  1.00  0.00     0.126 C 
HETATM   12  C   UNL     1      61.999   9.300   3.485  1.00  0.00     0.126 C 
HETATM   13  C   UNL     1      62.194  11.445   4.585  1.00  0.00     0.021 C 
HETATM   14  C   UNL     1      62.002  10.801   3.215  1.00  0.00     0.021 C 
HETATM   15  O   UNL     1      63.306   7.933   6.597  1.00  0.00    -0.273 OA
ENDBRANCH   2   9
TORSDOF 1
ENDMDL
MODEL 7
REMARK VINA RESULT:      -3.9      1.885      5.222
REMARK  1 active torsions:
REMARK  status: ('A' for Active; 'I' for Inactive)
REMARK       I    between atoms: C_1  and  N_2 
REMARK    1  A    between atoms: C_1  and  C_5 
ROOT
HETATM    1  N   UNL     1      61.712   8.015   4.139  1.00  0.00    -0.075 N 
HETATM    2  C   UNL     1      64.196   7.873   5.690  1.00  0.00     0.081 C 
HETATM    3  C   UNL     1      62.086   6.760   4.788  1.00  0.00     0.233 C 
HETATM    4  C   UNL     1      62.900   8.723   3.661  1.00  0.00     0.233 C 
HETATM    5  C   UNL     1      62.969   7.009   6.011  1.00  0.00     0.041 C 
HETATM    6  C   UNL     1      63.827   9.078   4.819  1.00  0.00     0.041 C 
HETATM    7  H   UNL     1      61.101   7.814   3.348  1.00  0.00     0.277 HD
HETATM    8  H   UNL     1      61.229   8.604   4.817  1.00  0.00     0.277 HD
ENDROOT
BRANCH   2   9
HETATM    9  C   UNL     1      65.312   7.038   5.050  1.00  0.00     0.224 C 
HETATM   10  N   UNL     1      66.247   6.491   5.906  1.00  0.00    -0.352 N 
HETATM   11  C   UNL     1      67.366   5.719   5.404  1.00  0.00     0.126 C 
HETATM   12  C   UNL     1      66.418   6.788   7.318  1.00  0.00     0.126 C 
HETATM   13  C   UNL     1      67.889   4.995   6.633  1.00  0.00     0.021 C 
HETATM   14  C   UNL     1      67.634   5.985   7.765  1.00  0.00     0.021 C 
HETATM   15  O   UNL     1      65.352   6.828   3.836  1.00  0.00    -0.273 OA
ENDBRANCH   2   9
TORSDOF 1
ENDMDL
MODEL 8
REMARK VINA RESULT:      -3.8      2.572      2.975
REMARK  1 active torsions:
REMARK  status: ('A' for Active; 'I' for Inactive)
REMARK       I    between atoms: C_1  and  N_2 
REMARK    1  A    between atoms: C_1  and  C_5 
ROOT
HETATM    1  N   UNL     1      64.423   4.712   4.493  1.00  0.00    -0.075 N 
HETATM    2  C   UNL     1      62.520   6.905   4.093  1.00  0.00     0.081 C 
HETATM    3  C   UNL     1      63.504   5.075   5.570  1.00  0.00     0.233 C 
HETATM    4  C   UNL     1      64.842   5.900   3.748  1.00  0.00     0.233 C 
HETATM    5  C   UNL     1      62.231   5.718   5.020  1.00  0.00     0.041 C 
HETATM    6  C   UNL     1      63.645   6.589   3.102  1.00  0.00     0.041 C 
HETATM    7  H   UNL     1      65.245   4.260   4.892  1.00  0.00     0.277 HD
HETATM    8  H   UNL     1      63.945   4.076   3.854  1.00  0.00     0.277 HD
ENDROOT
BRANCH   2   9
HETATM    9  C   UNL     1      62.821   8.178   4.895  1.00  0.00     0.224 C 
HETATM   10  N   UNL     1      62.489   9.379   4.301  1.00  0.00    -0.352 N 
HETATM   11  C   UNL     1      62.766  10.643   4.954  1.00  0.00     0.126 C 
HETATM   12  C   UNL     1      62.083   9.589   2.921  1.00  0.00     0.126 C 
HETATM   13  C   UNL     1      61.915  11.642   4.189  1.00  0.00     0.021 C 
HETATM   14  C   UNL     1      61.918  11.096   2.764  1.00  0.00     0.021 C 
HETATM   15  O   UNL     1      63.297   8.133   6.032  1.00  0.00    -0.273 OA
ENDBRANCH   2   9
TORSDOF 1
ENDMDL
MODEL 9
REMARK VINA RESULT:      -3.8     12.783     14.196
REMARK  1 active torsions:
REMARK  status: ('A' for Active; 'I' for Inactive)
REMARK       I    between atoms: C_1  and  N_2 
REMARK    1  A    between atoms: C_1  and  C_5 
ROOT
HETATM    1  N   UNL     1      52.375   3.127  13.613  1.00  0.00    -0.075 N 
HETATM    2  C   UNL     1      55.279   2.895  13.932  1.00  0.00     0.081 C 
HETATM    3  C   UNL     1      53.032   1.852  13.332  1.00  0.00     0.233 C 
HETATM    4  C   UNL     1      53.232   4.247  13.224  1.00  0.00     0.233 C 
HETATM    5  C   UNL     1      54.328   1.708  14.129  1.00  0.00     0.041 C 
HETATM    6  C   UNL     1      54.538   4.234  14.011  1.00  0.00     0.041 C 
HETATM    7  H   UNL     1      51.501   3.177  13.089  1.00  0.00     0.277 HD
HETATM    8  H   UNL     1      52.190   3.188  14.614  1.00  0.00     0.277 HD
ENDROOT
BRANCH   2   9
HETATM    9  C   UNL     1      56.066   2.767  12.622  1.00  0.00     0.224 C 
HETATM   10  N   UNL     1      57.333   2.224  12.710  1.00  0.00    -0.352 N 
HETATM   11  C   UNL     1      58.178   2.093  11.539  1.00  0.00     0.126 C 
HETATM   12  C   UNL     1      58.087   1.957  13.923  1.00  0.00     0.126 C 
HETATM   13  C   UNL     1      59.262   1.124  11.980  1.00  0.00     0.021 C 
HETATM   14  C   UNL     1      59.446   1.443  13.460  1.00  0.00     0.021 C 
HETATM   15  O   UNL     1      55.580   3.091  11.536  1.00  0.00    -0.273 OA
ENDBRANCH   2   9
TORSDOF 1
ENDMDL
