MODEL 1
REMARK VINA RESULT:      -5.3      0.000      0.000
REMARK  1 active torsions:
REMARK  status: ('A' for Active; 'I' for Inactive)
REMARK       I    between atoms: C_1  and  N_2 
REMARK    1  A    between atoms: C_1  and  C_7 
ROOT
HETATM    1  C   UNL     1      63.775   8.207   5.604  1.00  0.00     0.224 C 
HETATM    2  N   UNL     1      65.034   7.689   5.790  1.00  0.00    -0.352 N 
HETATM    3  O   UNL     1      62.890   7.908   6.400  1.00  0.00    -0.273 OA
HETATM    4  C   UNL     1      66.177   7.966   4.922  1.00  0.00     0.126 C 
HETATM    5  C   UNL     1      65.278   6.710   6.848  1.00  0.00     0.126 C 
HETATM    6  C   UNL     1      65.646   5.375   6.181  1.00  0.00     0.024 C 
HETATM    7  C   UNL     1      66.636   6.666   4.252  1.00  0.00     0.024 C 
HETATM    8  C   UNL     1      66.897   5.564   5.300  1.00  0.00    -0.015 C 
HETATM    9  C   UNL     1      67.270   4.248   4.606  1.00  0.00     0.010 C 
ENDROOT
BRANCH   1  10
HETATM   10  C   UNL     1      63.356   9.015   4.367  1.00  0.00     0.081 C 
HETATM   11  C   UNL     1      62.677   8.076   3.340  1.00  0.00     0.041 C 
HETATM   12  C   UNL     1      62.313   8.838   2.067  1.00  0.00     0.233 C 
HETATM   13  N   UNL     1      61.408   9.951   2.375  1.00  0.00    -0.075 N 
HETATM   14  C   UNL     1      62.025  10.892   3.325  1.00  0.00     0.233 C 
HETATM   15  H   UNL     1      60.551   9.579   2.784  1.00  0.00     0.277 HD
HETATM   16  H   UNL     1      61.206  10.451   1.509  1.00  0.00     0.277 HD
HETATM   17  C   UNL     1      62.401  10.196   4.652  1.00  0.00     0.041 C 
ENDBRANCH   1  10
TORSDOF 1
ENDMDL
MODEL 2
REMARK VINA RESULT:      -5.2      1.642      5.500
REMARK  1 active torsions:
REMARK  status: ('A' for Active; 'I' for Inactive)
REMARK       I    between atoms: C_1  and  N_2 
REMARK    1  A    between atoms: C_1  and  C_7 
ROOT
HETATM    1  C   UNL     1      64.295   8.614   5.330  1.00  0.00     0.224 C 
HETATM    2  N   UNL     1      63.093   8.526   4.669  1.00  0.00    -0.352 N 
HETATM    3  O   UNL     1      64.684   9.716   5.704  1.00  0.00    -0.273 OA
HETATM    4  C   UNL     1      62.511   7.280   4.175  1.00  0.00     0.126 C 
HETATM    5  C   UNL     1      62.356   9.739   4.318  1.00  0.00     0.126 C 
HETATM    6  C   UNL     1      62.333   9.853   2.786  1.00  0.00     0.024 C 
HETATM    7  C   UNL     1      62.410   7.335   2.646  1.00  0.00     0.024 C 
HETATM    8  C   UNL     1      61.662   8.602   2.185  1.00  0.00    -0.015 C 
HETATM    9  C   UNL     1      61.647   8.684   0.654  1.00  0.00     0.010 C 
ENDROOT
BRANCH   1  10
HETATM   10  C   UNL     1      65.268   7.438   5.494  1.00  0.00     0.081 C 
HETATM   11  C   UNL     1      66.701   7.895   5.125  1.00  0.00     0.041 C 
HETATM   12  C   UNL     1      67.681   6.727   5.209  1.00  0.00     0.233 C 
HETATM   13  N   UNL     1      67.690   6.160   6.563  1.00  0.00    -0.075 N 
HETATM   14  C   UNL     1      66.353   5.679   6.948  1.00  0.00     0.233 C 
HETATM   15  H   UNL     1      67.988   6.879   7.222  1.00  0.00     0.277 HD
HETATM   16  H   UNL     1      68.335   5.370   6.577  1.00  0.00     0.277 HD
HETATM   17  C   UNL     1      65.306   6.815   6.908  1.00  0.00     0.041 C 
ENDBRANCH   1  10
TORSDOF 1
ENDMDL
MODEL 3
REMARK VINA RESULT:      -5.1      1.502      1.978
REMARK  1 active torsions:
REMARK  status: ('A' for Active; 'I' for Inactive)
REMARK       I    between atoms: C_1  and  N_2 
REMARK    1  A    between atoms: C_1  and  C_7 
ROOT
HETATM    1  C   UNL     1      64.513   8.731   5.042  1.00  0.00     0.224 C 
HETATM    2  N   UNL     1      65.579   7.892   5.261  1.00  0.00    -0.352 N 
HETATM    3  O   UNL     1      64.440   9.773   5.686  1.00  0.00    -0.273 OA
HETATM    4  C   UNL     1      65.791   6.626   4.563  1.00  0.00     0.126 C 
HETATM    5  C   UNL     1      66.539   8.185   6.324  1.00  0.00     0.126 C 
HETATM    6  C   UNL     1      66.419   7.082   7.387  1.00  0.00     0.024 C 
HETATM    7  C   UNL     1      65.733   5.472   5.570  1.00  0.00     0.024 C 
HETATM    8  C   UNL     1      66.704   5.711   6.743  1.00  0.00    -0.015 C 
HETATM    9  C   UNL     1      66.569   4.591   7.782  1.00  0.00     0.010 C 
ENDROOT
BRANCH   1  10
HETATM   10  C   UNL     1      63.313   8.375   4.153  1.00  0.00     0.081 C 
HETATM   11  C   UNL     1      62.254   7.617   4.991  1.00  0.00     0.041 C 
HETATM   12  C   UNL     1      61.079   7.185   4.116  1.00  0.00     0.233 C 
HETATM   13  N   UNL     1      60.449   8.352   3.488  1.00  0.00    -0.075 N 
HETATM   14  C   UNL     1      61.411   9.089   2.650  1.00  0.00     0.233 C 
HETATM   15  H   UNL     1      60.098   8.973   4.216  1.00  0.00     0.277 HD
HETATM   16  H   UNL     1      59.687   8.027   2.893  1.00  0.00     0.277 HD
HETATM   17  C   UNL     1      62.623   9.580   3.474  1.00  0.00     0.041 C 
ENDBRANCH   1  10
TORSDOF 1
ENDMDL
MODEL 4
REMARK VINA RESULT:      -4.5      1.906      2.907
REMARK  1 active torsions:
REMARK  status: ('A' for Active; 'I' for Inactive)
REMARK       I    between atoms: C_1  and  N_2 
REMARK    1  A    between atoms: C_1  and  C_7 
ROOT
HETATM    1  C   UNL     1      64.883   6.513   4.379  1.00  0.00     0.224 C 
HETATM    2  N   UNL     1      65.347   5.714   5.396  1.00  0.00    -0.352 N 
HETATM    3  O   UNL     1      65.495   6.530   3.316  1.00  0.00    -0.273 OA
HETATM    4  C   UNL     1      64.713   5.596   6.708  1.00  0.00     0.126 C 
HETATM    5  C   UNL     1      66.610   4.993   5.248  1.00  0.00     0.126 C 
HETATM    6  C   UNL     1      67.608   5.574   6.262  1.00  0.00     0.024 C 
HETATM    7  C   UNL     1      65.671   6.115   7.786  1.00  0.00     0.024 C 
HETATM    8  C   UNL     1      67.044   5.420   7.688  1.00  0.00    -0.015 C 
HETATM    9  C   UNL     1      68.015   6.013   8.716  1.00  0.00     0.010 C 
ENDROOT
BRANCH   1  10
HETATM   10  C   UNL     1      63.730   7.516   4.537  1.00  0.00     0.081 C 
HETATM   11  C   UNL     1      64.289   8.876   5.023  1.00  0.00     0.041 C 
HETATM   12  C   UNL     1      63.158   9.874   5.258  1.00  0.00     0.233 C 
HETATM   13  N   UNL     1      62.391  10.082   4.024  1.00  0.00    -0.075 N 
HETATM   14  C   UNL     1      61.809   8.819   3.539  1.00  0.00     0.233 C 
HETATM   15  H   UNL     1      63.010  10.460   3.308  1.00  0.00     0.277 HD
HETATM   16  H   UNL     1      61.631  10.733   4.223  1.00  0.00     0.277 HD
HETATM   17  C   UNL     1      62.900   7.762   3.256  1.00  0.00     0.041 C 
ENDBRANCH   1  10
TORSDOF 1
ENDMDL
MODEL 5
REMARK VINA RESULT:      -4.5      3.861      6.187
REMARK  1 active torsions:
REMARK  status: ('A' for Active; 'I' for Inactive)
REMARK       I    between atoms: C_1  and  N_2 
REMARK    1  A    between atoms: C_1  and  C_7 
ROOT
HETATM    1  C   UNL     1      60.393   6.655   3.651  1.00  0.00     0.224 C 
HETATM    2  N   UNL     1      61.380   7.514   3.231  1.00  0.00    -0.352 N 
HETATM    3  O   UNL     1      59.793   5.990   2.812  1.00  0.00    -0.273 OA
HETATM    4  C   UNL     1      62.174   8.358   4.121  1.00  0.00     0.126 C 
HETATM    5  C   UNL     1      61.624   7.713   1.803  1.00  0.00     0.126 C 
HETATM    6  C   UNL     1      61.258   9.165   1.459  1.00  0.00     0.024 C 
HETATM    7  C   UNL     1      61.898   9.833   3.806  1.00  0.00     0.024 C 
HETATM    8  C   UNL     1      62.111  10.128   2.308  1.00  0.00    -0.015 C 
HETATM    9  C   UNL     1      61.747  11.585   1.996  1.00  0.00     0.010 C 
ENDROOT
BRANCH   1  10
HETATM   10  C   UNL     1      59.876   6.587   5.095  1.00  0.00     0.081 C 
HETATM   11  C   UNL     1      58.361   6.270   5.089  1.00  0.00     0.041 C 
HETATM   12  C   UNL     1      57.802   6.266   6.511  1.00  0.00     0.233 C 
HETATM   13  N   UNL     1      58.499   5.271   7.334  1.00  0.00    -0.075 N 
HETATM   14  C   UNL     1      59.943   5.550   7.399  1.00  0.00     0.233 C 
HETATM   15  H   UNL     1      58.356   4.346   6.930  1.00  0.00     0.277 HD
HETATM   16  H   UNL     1      58.119   5.312   8.280  1.00  0.00     0.277 HD
HETATM   17  C   UNL     1      60.586   5.548   5.993  1.00  0.00     0.041 C 
ENDBRANCH   1  10
TORSDOF 1
ENDMDL
MODEL 6
REMARK VINA RESULT:      -4.4      2.337      6.170
REMARK  1 active torsions:
REMARK  status: ('A' for Active; 'I' for Inactive)
REMARK       I    between atoms: C_1  and  N_2 
REMARK    1  A    between atoms: C_1  and  C_7 
ROOT
HETATM    1  C   UNL     1      64.807   5.421   6.280  1.00  0.00     0.224 C 
HETATM    2  N   UNL     1      64.429   6.358   5.349  1.00  0.00    -0.352 N 
HETATM    3  O   UNL     1      63.963   4.639   6.708  1.00  0.00    -0.273 OA
HETATM    4  C   UNL     1      65.331   7.343   4.755  1.00  0.00     0.126 C 
HETATM    5  C   UNL     1      63.023   6.492   4.969  1.00  0.00     0.126 C 
HETATM    6  C   UNL     1      62.533   7.868   5.447  1.00  0.00     0.024 C 
HETATM    7  C   UNL     1      64.877   8.753   5.150  1.00  0.00     0.024 C 
HETATM    8  C   UNL     1      63.391   8.975   4.803  1.00  0.00    -0.015 C 
HETATM    9  C   UNL     1      62.933  10.357   5.283  1.00  0.00     0.010 C 
ENDROOT
BRANCH   1  10
HETATM   10  C   UNL     1      66.191   5.386   6.945  1.00  0.00     0.081 C 
HETATM   11  C   UNL     1      66.170   6.249   8.230  1.00  0.00     0.041 C 
HETATM   12  C   UNL     1      67.553   6.293   8.876  1.00  0.00     0.233 C 
HETATM   13  N   UNL     1      68.005   4.938   9.214  1.00  0.00    -0.075 N 
HETATM   14  C   UNL     1      68.074   4.086   8.015  1.00  0.00     0.233 C 
HETATM   15  H   UNL     1      67.352   4.525   9.879  1.00  0.00     0.277 HD
HETATM   16  H   UNL     1      68.939   5.002   9.620  1.00  0.00     0.277 HD
HETATM   17  C   UNL     1      66.700   3.975   7.317  1.00  0.00     0.041 C 
ENDBRANCH   1  10
TORSDOF 1
ENDMDL
MODEL 7
REMARK VINA RESULT:      -4.0      3.248      5.841
REMARK  1 active torsions:
REMARK  status: ('A' for Active; 'I' for Inactive)
REMARK       I    between atoms: C_1  and  N_2 
REMARK    1  A    between atoms: C_1  and  C_7 
ROOT
HETATM    1  C   UNL     1      61.187   8.644   2.383  1.00  0.00     0.224 C 
HETATM    2  N   UNL     1      60.049   7.891   2.218  1.00  0.00    -0.352 N 
HETATM    3  O   UNL     1      61.799   9.015   1.386  1.00  0.00    -0.273 OA
HETATM    4  C   UNL     1      59.225   7.390   3.316  1.00  0.00     0.126 C 
HETATM    5  C   UNL     1      59.648   7.447   0.884  1.00  0.00     0.126 C 
HETATM    6  C   UNL     1      59.762   5.914   0.843  1.00  0.00     0.024 C 
HETATM    7  C   UNL     1      59.249   5.857   3.312  1.00  0.00     0.024 C 
HETATM    8  C   UNL     1      58.858   5.299   1.929  1.00  0.00    -0.015 C 
HETATM    9  C   UNL     1      58.972   3.770   1.920  1.00  0.00     0.010 C 
ENDROOT
BRANCH   1  10
HETATM   10  C   UNL     1      61.840   8.921   3.745  1.00  0.00     0.081 C 
HETATM   11  C   UNL     1      63.128   8.074   3.885  1.00  0.00     0.041 C 
HETATM   12  C   UNL     1      63.762   8.274   5.260  1.00  0.00     0.233 C 
HETATM   13  N   UNL     1      64.090   9.688   5.474  1.00  0.00    -0.075 N 
HETATM   14  C   UNL     1      62.887  10.534   5.384  1.00  0.00     0.233 C 
HETATM   15  H   UNL     1      64.759   9.986   4.765  1.00  0.00     0.277 HD
HETATM   16  H   UNL     1      64.487   9.790   6.408  1.00  0.00     0.277 HD
HETATM   17  C   UNL     1      62.201  10.401   4.006  1.00  0.00     0.041 C 
ENDBRANCH   1  10
TORSDOF 1
ENDMDL
MODEL 8
REMARK VINA RESULT:      -4.0      2.443      3.064
REMARK  1 active torsions:
REMARK  status: ('A' for Active; 'I' for Inactive)
REMARK       I    between atoms: C_1  and  N_2 
REMARK    1  A    between atoms: C_1  and  C_7 
ROOT
HETATM    1  C   UNL     1      63.690   6.342   2.605  1.00  0.00     0.224 C 
HETATM    2  N   UNL     1      64.538   6.122   3.664  1.00  0.00    -0.352 N 
HETATM    3  O   UNL     1      63.927   5.791   1.534  1.00  0.00    -0.273 OA
HETATM    4  C   UNL     1      64.371   6.710   4.991  1.00  0.00     0.126 C 
HETATM    5  C   UNL     1      65.761   5.343   3.477  1.00  0.00     0.126 C 
HETATM    6  C   UNL     1      66.958   6.284   3.686  1.00  0.00     0.024 C 
HETATM    7  C   UNL     1      65.558   7.631   5.295  1.00  0.00     0.024 C 
HETATM    8  C   UNL     1      66.897   6.892   5.101  1.00  0.00    -0.015 C 
HETATM    9  C   UNL     1      68.072   7.852   5.324  1.00  0.00     0.010 C 
ENDROOT
BRANCH   1  10
HETATM   10  C   UNL     1      62.543   7.363   2.625  1.00  0.00     0.081 C 
HETATM   11  C   UNL     1      62.368   7.974   1.213  1.00  0.00     0.041 C 
HETATM   12  C   UNL     1      61.281   9.046   1.217  1.00  0.00     0.233 C 
HETATM   13  N   UNL     1      60.002   8.480   1.659  1.00  0.00    -0.075 N 
HETATM   14  C   UNL     1      60.109   7.915   3.015  1.00  0.00     0.233 C 
HETATM   15  H   UNL     1      59.723   7.742   1.012  1.00  0.00     0.277 HD
HETATM   16  H   UNL     1      59.306   9.227   1.673  1.00  0.00     0.277 HD
HETATM   17  C   UNL     1      61.178   6.802   3.084  1.00  0.00     0.041 C 
ENDBRANCH   1  10
TORSDOF 1
ENDMDL
MODEL 9
REMARK VINA RESULT:      -3.9      2.873      6.266
REMARK  1 active torsions:
REMARK  status: ('A' for Active; 'I' for Inactive)
REMARK       I    between atoms: C_1  and  N_2 
REMARK    1  A    between atoms: C_1  and  C_7 
ROOT
HETATM    1  C   UNL     1      67.080   6.919   6.005  1.00  0.00     0.224 C 
HETATM    2  N   UNL     1      65.773   7.344   6.009  1.00  0.00    -0.352 N 
HETATM    3  O   UNL     1      67.871   7.452   5.234  1.00  0.00    -0.273 OA
HETATM    4  C   UNL     1      64.730   6.801   6.877  1.00  0.00     0.126 C 
HETATM    5  C   UNL     1      65.317   8.329   5.030  1.00  0.00     0.126 C 
HETATM    6  C   UNL     1      64.301   7.641   4.104  1.00  0.00     0.024 C 
HETATM    7  C   UNL     1      63.648   6.134   6.020  1.00  0.00     0.024 C 
HETATM    8  C   UNL     1      63.123   7.101   4.939  1.00  0.00    -0.015 C 
HETATM    9  C   UNL     1      62.107   6.391   4.038  1.00  0.00     0.010 C 
ENDROOT
BRANCH   1  10
HETATM   10  C   UNL     1      67.586   5.703   6.795  1.00  0.00     0.081 C 
HETATM   11  C   UNL     1      67.510   6.001   8.312  1.00  0.00     0.041 C 
HETATM   12  C   UNL     1      68.074   4.837   9.122  1.00  0.00     0.233 C 
HETATM   13  N   UNL     1      67.331   3.604   8.837  1.00  0.00    -0.075 N 
HETATM   14  C   UNL     1      67.402   3.258   7.407  1.00  0.00     0.233 C 
HETATM   15  H   UNL     1      66.355   3.736   9.099  1.00  0.00     0.277 HD
HETATM   16  H   UNL     1      67.749   2.844   9.375  1.00  0.00     0.277 HD
HETATM   17  C   UNL     1      66.825   4.385   6.521  1.00  0.00     0.041 C 
ENDBRANCH   1  10
TORSDOF 1
ENDMDL
