MODEL 1
REMARK VINA RESULT:      -4.9      0.000      0.000
REMARK  3 active torsions:
REMARK  status: ('A' for Active; 'I' for Inactive)
REMARK    1  A    between atoms: C_1  and  N_2 
REMARK    2  A    between atoms: C_6  and  C_12 
REMARK    3  A    between atoms: O_11  and  C_12 
ROOT
HETATM    1  C   UNL     1      62.245   8.947   2.923  1.00  0.00     0.102 A 
HETATM    2  N   UNL     1      61.648  10.157   3.021  1.00  0.00    -0.352 N 
ATOM      3  HN  UNL     1      60.977  10.463   2.316  1.00  0.00     0.166 HD
HETATM    4  C   UNL     1      63.157   8.542   3.897  1.00  0.00     0.049 A 
HETATM    5  C   UNL     1      62.846  10.614   5.079  1.00  0.00    -0.019 A 
HETATM    6  C   UNL     1      61.957  10.955   4.074  1.00  0.00     0.099 A 
HETATM    7  C   UNL     1      63.460   9.372   4.976  1.00  0.00     0.014 A 
ENDROOT
BRANCH   1   8
HETATM    8  N   UNL     1      61.901   8.122   1.885  1.00  0.00    -0.367 N 
HETATM    9  C   UNL     1      60.923   8.518   0.886  1.00  0.00     0.124 C 
HETATM   10  C   UNL     1      60.609   7.192   0.200  1.00  0.00     0.021 C 
HETATM   11  C   UNL     1      61.948   6.465   0.201  1.00  0.00     0.021 C 
HETATM   12  C   UNL     1      62.660   6.959   1.462  1.00  0.00     0.124 C 
ENDBRANCH   1   8
BRANCH   5  13
HETATM   13  C   UNL     1      63.156  11.540   6.215  1.00  0.00     0.204 C 
BRANCH  13  14
HETATM   14  O   UNL     1      64.539  11.494   6.542  1.00  0.00    -0.396 OA
HETATM   15  H   UNL     1      64.685  11.935   7.393  1.00  0.00     0.209 HD
ENDBRANCH  13  14
ENDBRANCH   5  13
TORSDOF 3
ENDMDL
MODEL 2
REMARK VINA RESULT:      -4.8      3.675      5.503
REMARK  3 active torsions:
REMARK  status: ('A' for Active; 'I' for Inactive)
REMARK    1  A    between atoms: C_1  and  N_2 
REMARK    2  A    between atoms: C_6  and  C_12 
REMARK    3  A    between atoms: O_11  and  C_12 
ROOT
HETATM    1  C   UNL     1      64.829   7.865   5.313  1.00  0.00     0.102 A 
HETATM    2  N   UNL     1      64.286   9.028   5.741  1.00  0.00    -0.352 N 
ATOM      3  HN  UNL     1      64.597   9.456   6.613  1.00  0.00     0.166 HD
HETATM    4  C   UNL     1      64.394   7.295   4.117  1.00  0.00     0.049 A 
HETATM    5  C   UNL     1      62.847   9.108   3.791  1.00  0.00    -0.019 A 
HETATM    6  C   UNL     1      63.320   9.613   4.990  1.00  0.00     0.099 A 
HETATM    7  C   UNL     1      63.405   7.912   3.353  1.00  0.00     0.014 A 
ENDROOT
BRANCH   1   8
HETATM    8  N   UNL     1      65.835   7.296   6.048  1.00  0.00    -0.367 N 
HETATM    9  C   UNL     1      65.592   6.722   7.360  1.00  0.00     0.124 C 
HETATM   10  C   UNL     1      67.005   6.572   7.912  1.00  0.00     0.021 C 
HETATM   11  C   UNL     1      67.830   6.203   6.686  1.00  0.00     0.021 C 
HETATM   12  C   UNL     1      67.128   6.898   5.518  1.00  0.00     0.124 C 
ENDBRANCH   1   8
BRANCH   5  13
HETATM   13  C   UNL     1      61.771   9.794   3.006  1.00  0.00     0.204 C 
BRANCH  13  14
HETATM   14  O   UNL     1      61.384  11.009   3.636  1.00  0.00    -0.396 OA
HETATM   15  H   UNL     1      60.979  11.598   2.979  1.00  0.00     0.209 HD
ENDBRANCH  13  14
ENDBRANCH   5  13
TORSDOF 3
ENDMDL
MODEL 3
REMARK VINA RESULT:      -4.4      3.657      4.890
REMARK  3 active torsions:
REMARK  status: ('A' for Active; 'I' for Inactive)
REMARK    1  A    between atoms: C_1  and  N_2 
REMARK    2  A    between atoms: C_6  and  C_12 
REMARK    3  A    between atoms: O_11  and  C_12 
ROOT
HETATM    1  C   UNL     1      64.535   8.051   5.425  1.00  0.00     0.102 A 
HETATM    2  N   UNL     1      64.107   7.304   6.468  1.00  0.00    -0.352 N 
ATOM      3  HN  UNL     1      63.116   7.269   6.709  1.00  0.00     0.166 HD
HETATM    4  C   UNL     1      65.893   8.087   5.108  1.00  0.00     0.049 A 
HETATM    5  C   UNL     1      66.378   6.589   6.927  1.00  0.00    -0.019 A 
HETATM    6  C   UNL     1      65.019   6.605   7.189  1.00  0.00     0.099 A 
HETATM    7  C   UNL     1      66.817   7.357   5.855  1.00  0.00     0.014 A 
ENDROOT
BRANCH   1   8
HETATM    8  N   UNL     1      63.611   8.723   4.669  1.00  0.00    -0.367 N 
HETATM    9  C   UNL     1      63.230  10.092   4.968  1.00  0.00     0.124 C 
HETATM   10  C   UNL     1      61.962  10.261   4.137  1.00  0.00     0.021 C 
HETATM   11  C   UNL     1      62.248   9.449   2.881  1.00  0.00     0.021 C 
HETATM   12  C   UNL     1      63.166   8.316   3.348  1.00  0.00     0.124 C 
ENDBRANCH   1   8
BRANCH   5  13
HETATM   13  C   UNL     1      67.341   5.803   7.762  1.00  0.00     0.204 C 
BRANCH  13  14
HETATM   14  O   UNL     1      68.050   6.655   8.653  1.00  0.00    -0.396 OA
HETATM   15  H   UNL     1      68.820   7.031   8.197  1.00  0.00     0.209 HD
ENDBRANCH  13  14
ENDBRANCH   5  13
TORSDOF 3
ENDMDL
MODEL 4
REMARK VINA RESULT:      -4.3      3.052      4.359
REMARK  3 active torsions:
REMARK  status: ('A' for Active; 'I' for Inactive)
REMARK    1  A    between atoms: C_1  and  N_2 
REMARK    2  A    between atoms: C_6  and  C_12 
REMARK    3  A    between atoms: O_11  and  C_12 
ROOT
HETATM    1  C   UNL     1      63.268   7.993   4.813  1.00  0.00     0.102 A 
HETATM    2  N   UNL     1      63.204   9.112   5.569  1.00  0.00    -0.352 N 
ATOM      3  HN  UNL     1      63.511   9.100   6.542  1.00  0.00     0.166 HD
HETATM    4  C   UNL     1      62.848   8.027   3.484  1.00  0.00     0.049 A 
HETATM    5  C   UNL     1      62.297  10.359   3.698  1.00  0.00    -0.019 A 
HETATM    6  C   UNL     1      62.724  10.251   5.011  1.00  0.00     0.099 A 
HETATM    7  C   UNL     1      62.362   9.208   2.923  1.00  0.00     0.014 A 
ENDROOT
BRANCH   1   8
HETATM    8  N   UNL     1      63.794   6.853   5.363  1.00  0.00    -0.367 N 
HETATM    9  C   UNL     1      63.994   5.648   4.577  1.00  0.00     0.124 C 
HETATM   10  C   UNL     1      64.222   4.595   5.657  1.00  0.00     0.021 C 
HETATM   11  C   UNL     1      64.995   5.348   6.732  1.00  0.00     0.021 C 
HETATM   12  C   UNL     1      64.499   6.792   6.631  1.00  0.00     0.124 C 
ENDBRANCH   1   8
BRANCH   5  13
HETATM   13  C   UNL     1      61.768  11.643   3.136  1.00  0.00     0.204 C 
BRANCH  13  14
HETATM   14  O   UNL     1      62.164  11.801   1.779  1.00  0.00    -0.396 OA
HETATM   15  H   UNL     1      62.533  10.966   1.450  1.00  0.00     0.209 HD
ENDBRANCH  13  14
ENDBRANCH   5  13
TORSDOF 3
ENDMDL
MODEL 5
REMARK VINA RESULT:      -4.0      4.696      6.529
REMARK  3 active torsions:
REMARK  status: ('A' for Active; 'I' for Inactive)
REMARK    1  A    between atoms: C_1  and  N_2 
REMARK    2  A    between atoms: C_6  and  C_12 
REMARK    3  A    between atoms: O_11  and  C_12 
ROOT
HETATM    1  C   UNL     1      65.111   6.912   6.571  1.00  0.00     0.102 A 
HETATM    2  N   UNL     1      63.819   6.512   6.605  1.00  0.00    -0.352 N 
ATOM      3  HN  UNL     1      63.529   5.747   7.214  1.00  0.00     0.166 HD
HETATM    4  C   UNL     1      65.491   7.962   5.735  1.00  0.00     0.049 A 
HETATM    5  C   UNL     1      63.223   8.200   4.969  1.00  0.00    -0.019 A 
HETATM    6  C   UNL     1      62.918   7.147   5.815  1.00  0.00     0.099 A 
HETATM    7  C   UNL     1      64.551   8.608   4.934  1.00  0.00     0.014 A 
ENDROOT
BRANCH   1   8
HETATM    8  N   UNL     1      66.014   6.301   7.400  1.00  0.00    -0.367 N 
HETATM    9  C   UNL     1      66.433   4.926   7.193  1.00  0.00     0.124 C 
HETATM   10  C   UNL     1      67.108   4.592   8.519  1.00  0.00     0.021 C 
HETATM   11  C   UNL     1      67.782   5.899   8.915  1.00  0.00     0.021 C 
HETATM   12  C   UNL     1      66.885   6.994   8.334  1.00  0.00     0.124 C 
ENDBRANCH   1   8
BRANCH   5  13
HETATM   13  C   UNL     1      62.187   8.859   4.112  1.00  0.00     0.204 C 
BRANCH  13  14
HETATM   14  O   UNL     1      62.717   9.175   2.831  1.00  0.00    -0.396 OA
HETATM   15  H   UNL     1      62.656   8.397   2.255  1.00  0.00     0.209 HD
ENDBRANCH  13  14
ENDBRANCH   5  13
TORSDOF 3
ENDMDL
MODEL 6
REMARK VINA RESULT:      -3.9      3.112      5.251
REMARK  3 active torsions:
REMARK  status: ('A' for Active; 'I' for Inactive)
REMARK    1  A    between atoms: C_1  and  N_2 
REMARK    2  A    between atoms: C_6  and  C_12 
REMARK    3  A    between atoms: O_11  and  C_12 
ROOT
HETATM    1  C   UNL     1      62.909   7.716   3.196  1.00  0.00     0.102 A 
HETATM    2  N   UNL     1      62.182   6.617   2.890  1.00  0.00    -0.352 N 
ATOM      3  HN  UNL     1      62.416   5.710   3.295  1.00  0.00     0.166 HD
HETATM    4  C   UNL     1      62.574   8.948   2.635  1.00  0.00     0.049 A 
HETATM    5  C   UNL     1      60.744   7.934   1.450  1.00  0.00    -0.019 A 
HETATM    6  C   UNL     1      61.136   6.743   2.036  1.00  0.00     0.099 A 
HETATM    7  C   UNL     1      61.493   9.062   1.763  1.00  0.00     0.014 A 
ENDROOT
BRANCH   1   8
HETATM    8  N   UNL     1      63.938   7.599   4.092  1.00  0.00    -0.367 N 
HETATM    9  C   UNL     1      64.291   8.680   4.996  1.00  0.00     0.124 C 
HETATM   10  C   UNL     1      65.665   8.245   5.497  1.00  0.00     0.021 C 
HETATM   11  C   UNL     1      65.547   6.729   5.589  1.00  0.00     0.021 C 
HETATM   12  C   UNL     1      64.559   6.345   4.485  1.00  0.00     0.124 C 
ENDBRANCH   1   8
BRANCH   5  13
HETATM   13  C   UNL     1      59.583   8.013   0.505  1.00  0.00     0.204 C 
BRANCH  13  14
HETATM   14  O   UNL     1      58.456   8.605   1.138  1.00  0.00    -0.396 OA
HETATM   15  H   UNL     1      58.748   9.347   1.690  1.00  0.00     0.209 HD
ENDBRANCH  13  14
ENDBRANCH   5  13
TORSDOF 3
ENDMDL
MODEL 7
REMARK VINA RESULT:      -3.9      1.802      2.396
REMARK  3 active torsions:
REMARK  status: ('A' for Active; 'I' for Inactive)
REMARK    1  A    between atoms: C_1  and  N_2 
REMARK    2  A    between atoms: C_6  and  C_12 
REMARK    3  A    between atoms: O_11  and  C_12 
ROOT
HETATM    1  C   UNL     1      61.972   7.749   3.683  1.00  0.00     0.102 A 
HETATM    2  N   UNL     1      62.708   7.665   4.814  1.00  0.00    -0.352 N 
ATOM      3  HN  UNL     1      63.005   6.757   5.174  1.00  0.00     0.166 HD
HETATM    4  C   UNL     1      61.577   8.998   3.204  1.00  0.00     0.049 A 
HETATM    5  C   UNL     1      62.692  10.078   5.041  1.00  0.00    -0.019 A 
HETATM    6  C   UNL     1      63.044   8.807   5.463  1.00  0.00     0.099 A 
HETATM    7  C   UNL     1      61.935  10.164   3.879  1.00  0.00     0.014 A 
ENDROOT
BRANCH   1   8
HETATM    8  N   UNL     1      61.669   6.599   3.003  1.00  0.00    -0.367 N 
HETATM    9  C   UNL     1      62.138   5.300   3.453  1.00  0.00     0.124 C 
HETATM   10  C   UNL     1      61.888   4.426   2.229  1.00  0.00     0.021 C 
HETATM   11  C   UNL     1      60.597   4.989   1.647  1.00  0.00     0.021 C 
HETATM   12  C   UNL     1      60.624   6.477   2.003  1.00  0.00     0.124 C 
ENDBRANCH   1   8
BRANCH   5  13
HETATM   13  C   UNL     1      63.085  11.307   5.802  1.00  0.00     0.204 C 
BRANCH  13  14
HETATM   14  O   UNL     1      64.438  11.225   6.232  1.00  0.00    -0.396 OA
HETATM   15  H   UNL     1      64.944  11.960   5.852  1.00  0.00     0.209 HD
ENDBRANCH  13  14
ENDBRANCH   5  13
TORSDOF 3
ENDMDL
MODEL 8
REMARK VINA RESULT:      -3.9      2.582      3.307
REMARK  3 active torsions:
REMARK  status: ('A' for Active; 'I' for Inactive)
REMARK    1  A    between atoms: C_1  and  N_2 
REMARK    2  A    between atoms: C_6  and  C_12 
REMARK    3  A    between atoms: O_11  and  C_12 
ROOT
HETATM    1  C   UNL     1      60.698   7.852   3.656  1.00  0.00     0.102 A 
HETATM    2  N   UNL     1      61.228   7.112   4.657  1.00  0.00    -0.352 N 
ATOM      3  HN  UNL     1      60.684   6.370   5.098  1.00  0.00     0.166 HD
HETATM    4  C   UNL     1      61.455   8.861   3.062  1.00  0.00     0.049 A 
HETATM    5  C   UNL     1      63.305   8.354   4.515  1.00  0.00    -0.019 A 
HETATM    6  C   UNL     1      62.495   7.375   5.063  1.00  0.00     0.099 A 
HETATM    7  C   UNL     1      62.758   9.115   3.488  1.00  0.00     0.014 A 
ENDROOT
BRANCH   1   8
HETATM    8  N   UNL     1      59.434   7.559   3.216  1.00  0.00    -0.367 N 
HETATM    9  C   UNL     1      59.198   6.973   1.907  1.00  0.00     0.124 C 
HETATM   10  C   UNL     1      57.698   7.182   1.728  1.00  0.00     0.021 C 
HETATM   11  C   UNL     1      57.141   6.995   3.133  1.00  0.00     0.021 C 
HETATM   12  C   UNL     1      58.258   7.473   4.064  1.00  0.00     0.124 C 
ENDBRANCH   1   8
BRANCH   5  13
HETATM   13  C   UNL     1      64.696   8.606   5.009  1.00  0.00     0.204 C 
BRANCH  13  14
HETATM   14  O   UNL     1      64.742   9.777   5.816  1.00  0.00    -0.396 OA
HETATM   15  H   UNL     1      65.394  10.396   5.451  1.00  0.00     0.209 HD
ENDBRANCH  13  14
ENDBRANCH   5  13
TORSDOF 3
ENDMDL
MODEL 9
REMARK VINA RESULT:      -3.8      2.658      3.477
REMARK  3 active torsions:
REMARK  status: ('A' for Active; 'I' for Inactive)
REMARK    1  A    between atoms: C_1  and  N_2 
REMARK    2  A    between atoms: C_6  and  C_12 
REMARK    3  A    between atoms: O_11  and  C_12 
ROOT
HETATM    1  C   UNL     1      63.128   7.703   4.404  1.00  0.00     0.102 A 
HETATM    2  N   UNL     1      62.975   6.635   5.220  1.00  0.00    -0.352 N 
ATOM      3  HN  UNL     1      62.166   6.020   5.123  1.00  0.00     0.166 HD
HETATM    4  C   UNL     1      64.241   8.532   4.547  1.00  0.00     0.049 A 
HETATM    5  C   UNL     1      65.047   7.170   6.360  1.00  0.00    -0.019 A 
HETATM    6  C   UNL     1      63.916   6.396   6.167  1.00  0.00     0.099 A 
HETATM    7  C   UNL     1      65.202   8.269   5.522  1.00  0.00     0.014 A 
ENDROOT
BRANCH   1   8
HETATM    8  N   UNL     1      62.202   7.921   3.418  1.00  0.00    -0.367 N 
HETATM    9  C   UNL     1      62.596   8.219   2.052  1.00  0.00     0.124 C 
HETATM   10  C   UNL     1      61.294   8.736   1.449  1.00  0.00     0.021 C 
HETATM   11  C   UNL     1      60.226   7.887   2.125  1.00  0.00     0.021 C 
HETATM   12  C   UNL     1      60.796   7.569   3.508  1.00  0.00     0.124 C 
ENDBRANCH   1   8
BRANCH   5  13
HETATM   13  C   UNL     1      66.050   6.863   7.429  1.00  0.00     0.204 C 
BRANCH  13  14
HETATM   14  O   UNL     1      67.075   7.849   7.458  1.00  0.00    -0.396 OA
HETATM   15  H   UNL     1      66.848   8.532   8.108  1.00  0.00     0.209 HD
ENDBRANCH  13  14
ENDBRANCH   5  13
TORSDOF 3
ENDMDL
