MODEL 1
REMARK VINA RESULT:      -5.8      0.000      0.000
REMARK  2 active torsions:
REMARK  status: ('A' for Active; 'I' for Inactive)
REMARK    1  A    between atoms: C_1  and  C_7 
REMARK    2  A    between atoms: C_4  and  C_8 
ROOT
HETATM    1  C   UNK     1      64.973   6.425   6.959  1.00  0.00     0.117 A 
HETATM    2  N   UNK     1      64.664   7.645   6.353  1.00  0.00    -0.344 N 
ATOM      3  HN  UNK     1      65.102   8.536   6.589  1.00  0.00     0.167 HD
HETATM    4  C   UNK     1      63.730   7.489   5.432  1.00  0.00     0.085 A 
HETATM    5  S   UNK     1      63.148   5.873   5.275  1.00  0.00    -0.081 SA
HETATM    6  C   UNK     1      64.235   5.357   6.484  1.00  0.00     0.088 A 
ENDROOT
BRANCH   4   7
HETATM    7  C   UNK     1      63.160   8.584   4.628  1.00  0.00    -0.002 A 
HETATM    8  C   UNK     1      62.908   9.859   5.161  1.00  0.00     0.015 A 
HETATM    9  C   UNK     1      62.394  10.885   4.361  1.00  0.00     0.007 A 
HETATM   10  C   UNK     1      62.112  10.659   3.012  1.00  0.00    -0.062 A 
HETATM   11  C   UNK     1      62.336   9.387   2.475  1.00  0.00     0.007 A 
HETATM   12  C   UNK     1      61.585  11.779   2.163  1.00  0.00     0.048 C 
HETATM   13  C   UNK     1      62.850   8.361   3.278  1.00  0.00     0.015 A 
ENDBRANCH   4   7
BRANCH   1  14
HETATM   14  C   UNK     1      65.982   6.292   8.006  1.00  0.00     0.227 C 
HETATM   15  O   UNK     1      66.043   5.373   8.814  1.00  0.00    -0.643 OA
HETATM   16  O   UNK     1      66.897   7.286   8.047  1.00  0.00    -0.643 OA
ENDBRANCH   1  14
TORSDOF 2
ENDMDL
MODEL 2
REMARK VINA RESULT:      -5.5      1.736      2.087
REMARK  2 active torsions:
REMARK  status: ('A' for Active; 'I' for Inactive)
REMARK    1  A    between atoms: C_1  and  C_7 
REMARK    2  A    between atoms: C_4  and  C_8 
ROOT
HETATM    1  C   UNK     1      66.201   6.685   7.475  1.00  0.00     0.117 A 
HETATM    2  N   UNK     1      65.028   7.061   6.817  1.00  0.00    -0.344 N 
ATOM      3  HN  UNK     1      64.089   6.957   7.203  1.00  0.00     0.167 HD
HETATM    4  C   UNK     1      65.297   7.570   5.629  1.00  0.00     0.085 A 
HETATM    5  S   UNK     1      66.974   7.588   5.225  1.00  0.00    -0.081 SA
HETATM    6  C   UNK     1      67.353   6.907   6.743  1.00  0.00     0.088 A 
ENDROOT
BRANCH   4   7
HETATM    7  C   UNK     1      64.280   8.038   4.671  1.00  0.00    -0.002 A 
HETATM    8  C   UNK     1      63.561   9.231   4.857  1.00  0.00     0.015 A 
HETATM    9  C   UNK     1      62.624   9.661   3.912  1.00  0.00     0.007 A 
HETATM   10  C   UNK     1      62.378   8.907   2.762  1.00  0.00    -0.062 A 
HETATM   11  C   UNK     1      63.071   7.706   2.576  1.00  0.00     0.007 A 
HETATM   12  C   UNK     1      61.388   9.398   1.746  1.00  0.00     0.048 C 
HETATM   13  C   UNK     1      64.007   7.276   3.525  1.00  0.00     0.015 A 
ENDBRANCH   4   7
BRANCH   1  14
HETATM   14  C   UNK     1      66.209   6.104   8.814  1.00  0.00     0.227 C 
HETATM   15  O   UNK     1      66.221   6.741   9.860  1.00  0.00    -0.643 OA
HETATM   16  O   UNK     1      66.204   4.752   8.850  1.00  0.00    -0.643 OA
ENDBRANCH   1  14
TORSDOF 2
ENDMDL
MODEL 3
REMARK VINA RESULT:      -5.3      3.405      6.153
REMARK  2 active torsions:
REMARK  status: ('A' for Active; 'I' for Inactive)
REMARK    1  A    between atoms: C_1  and  C_7 
REMARK    2  A    between atoms: C_4  and  C_8 
ROOT
HETATM    1  C   UNK     1      62.410   9.840   4.000  1.00  0.00     0.117 A 
HETATM    2  N   UNK     1      63.588   9.527   4.683  1.00  0.00    -0.344 N 
ATOM      3  HN  UNK     1      64.285  10.211   4.977  1.00  0.00     0.167 HD
HETATM    4  C   UNK     1      63.675   8.227   4.898  1.00  0.00     0.085 A 
HETATM    5  S   UNK     1      62.364   7.309   4.255  1.00  0.00    -0.081 SA
HETATM    6  C   UNK     1      61.629   8.743   3.692  1.00  0.00     0.088 A 
ENDROOT
BRANCH   4   7
HETATM    7  C   UNK     1      64.808   7.566   5.569  1.00  0.00    -0.002 A 
HETATM    8  C   UNK     1      66.145   7.907   5.304  1.00  0.00     0.015 A 
HETATM    9  C   UNK     1      67.196   7.279   5.981  1.00  0.00     0.007 A 
HETATM   10  C   UNK     1      66.936   6.293   6.936  1.00  0.00    -0.062 A 
HETATM   11  C   UNK     1      65.610   5.928   7.192  1.00  0.00     0.007 A 
HETATM   12  C   UNK     1      68.075   5.650   7.671  1.00  0.00     0.048 C 
HETATM   13  C   UNK     1      64.560   6.556   6.511  1.00  0.00     0.015 A 
ENDBRANCH   4   7
BRANCH   1  14
HETATM   14  C   UNK     1      62.041  11.206   3.639  1.00  0.00     0.227 C 
HETATM   15  O   UNK     1      61.815  12.109   4.434  1.00  0.00    -0.643 OA
HETATM   16  O   UNK     1      61.955  11.441   2.310  1.00  0.00    -0.643 OA
ENDBRANCH   1  14
TORSDOF 2
ENDMDL
MODEL 4
REMARK VINA RESULT:      -4.9      1.751      2.187
REMARK  2 active torsions:
REMARK  status: ('A' for Active; 'I' for Inactive)
REMARK    1  A    between atoms: C_1  and  C_7 
REMARK    2  A    between atoms: C_4  and  C_8 
ROOT
HETATM    1  C   UNK     1      64.174   5.480   6.234  1.00  0.00     0.117 A 
HETATM    2  N   UNK     1      63.327   6.300   5.485  1.00  0.00    -0.344 N 
ATOM      3  HN  UNK     1      62.409   6.020   5.138  1.00  0.00     0.167 HD
HETATM    4  C   UNK     1      63.874   7.485   5.288  1.00  0.00     0.085 A 
HETATM    5  S   UNK     1      65.453   7.662   5.960  1.00  0.00    -0.081 SA
HETATM    6  C   UNK     1      65.375   6.072   6.576  1.00  0.00     0.088 A 
ENDROOT
BRANCH   4   7
HETATM    7  C   UNK     1      63.253   8.573   4.512  1.00  0.00    -0.002 A 
HETATM    8  C   UNK     1      62.954   9.825   5.075  1.00  0.00     0.015 A 
HETATM    9  C   UNK     1      62.392  10.846   4.302  1.00  0.00     0.007 A 
HETATM   10  C   UNK     1      62.108  10.639   2.949  1.00  0.00    -0.062 A 
HETATM   11  C   UNK     1      62.379   9.389   2.383  1.00  0.00     0.007 A 
HETATM   12  C   UNK     1      61.529  11.754   2.130  1.00  0.00     0.048 C 
HETATM   13  C   UNK     1      62.941   8.367   3.160  1.00  0.00     0.015 A 
ENDBRANCH   4   7
BRANCH   1  14
HETATM   14  C   UNK     1      63.823   4.115   6.617  1.00  0.00     0.227 C 
HETATM   15  O   UNK     1      64.210   3.545   7.630  1.00  0.00    -0.643 OA
HETATM   16  O   UNK     1      63.007   3.471   5.752  1.00  0.00    -0.643 OA
ENDBRANCH   1  14
TORSDOF 2
ENDMDL
MODEL 5
REMARK VINA RESULT:      -4.7     12.406     13.782
REMARK  2 active torsions:
REMARK  status: ('A' for Active; 'I' for Inactive)
REMARK    1  A    between atoms: C_1  and  C_7 
REMARK    2  A    between atoms: C_4  and  C_8 
ROOT
HETATM    1  C   UNK     1      54.707   3.096  13.794  1.00  0.00     0.117 A 
HETATM    2  N   UNK     1      56.028   2.764  13.484  1.00  0.00    -0.344 N 
ATOM      3  HN  UNK     1      56.709   3.411  13.086  1.00  0.00     0.167 HD
HETATM    4  C   UNK     1      56.275   1.500  13.775  1.00  0.00     0.085 A 
HETATM    5  S   UNK     1      54.920   0.635  14.401  1.00  0.00    -0.081 SA
HETATM    6  C   UNK     1      53.967   2.047  14.305  1.00  0.00     0.088 A 
ENDROOT
BRANCH   4   7
HETATM    7  C   UNK     1      57.565   0.826  13.543  1.00  0.00    -0.002 A 
HETATM    8  C   UNK     1      57.724  -0.564  13.671  1.00  0.00     0.015 A 
HETATM    9  C   UNK     1      58.956  -1.174  13.415  1.00  0.00     0.007 A 
HETATM   10  C   UNK     1      60.060  -0.410  13.031  1.00  0.00    -0.062 A 
HETATM   11  C   UNK     1      59.921   0.977  12.922  1.00  0.00     0.007 A 
HETATM   12  C   UNK     1      61.367  -1.086  12.734  1.00  0.00     0.048 C 
HETATM   13  C   UNK     1      58.687   1.587  13.182  1.00  0.00     0.015 A 
ENDBRANCH   4   7
BRANCH   1  14
HETATM   14  C   UNK     1      54.156   4.432  13.589  1.00  0.00     0.227 C 
HETATM   15  O   UNK     1      54.248   5.362  14.381  1.00  0.00    -0.643 OA
HETATM   16  O   UNK     1      53.501   4.607  12.419  1.00  0.00    -0.643 OA
ENDBRANCH   1  14
TORSDOF 2
ENDMDL
MODEL 6
REMARK VINA RESULT:      -4.6      2.056      2.713
REMARK  2 active torsions:
REMARK  status: ('A' for Active; 'I' for Inactive)
REMARK    1  A    between atoms: C_1  and  C_7 
REMARK    2  A    between atoms: C_4  and  C_8 
ROOT
HETATM    1  C   UNK     1      66.543   6.744   7.707  1.00  0.00     0.117 A 
HETATM    2  N   UNK     1      65.207   6.900   7.331  1.00  0.00    -0.344 N 
ATOM      3  HN  UNK     1      64.413   6.811   7.966  1.00  0.00     0.167 HD
HETATM    4  C   UNK     1      65.111   7.178   6.044  1.00  0.00     0.085 A 
HETATM    5  S   UNK     1      66.620   7.229   5.211  1.00  0.00    -0.081 SA
HETATM    6  C   UNK     1      67.442   6.893   6.668  1.00  0.00     0.088 A 
ENDROOT
BRANCH   4   7
HETATM    7  C   UNK     1      63.839   7.374   5.325  1.00  0.00    -0.002 A 
HETATM    8  C   UNK     1      63.702   8.297   4.275  1.00  0.00     0.015 A 
HETATM    9  C   UNK     1      62.488   8.436   3.593  1.00  0.00     0.007 A 
HETATM   10  C   UNK     1      61.381   7.662   3.950  1.00  0.00    -0.062 A 
HETATM   11  C   UNK     1      61.499   6.757   5.009  1.00  0.00     0.007 A 
HETATM   12  C   UNK     1      60.095   7.807   3.190  1.00  0.00     0.048 C 
HETATM   13  C   UNK     1      62.714   6.621   5.691  1.00  0.00     0.015 A 
ENDBRANCH   4   7
BRANCH   1  14
HETATM   14  C   UNK     1      66.953   6.444   9.076  1.00  0.00     0.227 C 
HETATM   15  O   UNK     1      66.384   6.840  10.085  1.00  0.00    -0.643 OA
HETATM   16  O   UNK     1      68.053   5.666   9.186  1.00  0.00    -0.643 OA
ENDBRANCH   1  14
TORSDOF 2
ENDMDL
MODEL 7
REMARK VINA RESULT:      -4.6      2.138      2.724
REMARK  2 active torsions:
REMARK  status: ('A' for Active; 'I' for Inactive)
REMARK    1  A    between atoms: C_1  and  C_7 
REMARK    2  A    between atoms: C_4  and  C_8 
ROOT
HETATM    1  C   UNK     1      65.240   7.613   5.886  1.00  0.00     0.117 A 
HETATM    2  N   UNK     1      64.546   8.037   4.750  1.00  0.00    -0.344 N 
ATOM      3  HN  UNK     1      64.894   8.725   4.082  1.00  0.00     0.167 HD
HETATM    4  C   UNK     1      63.379   7.426   4.657  1.00  0.00     0.085 A 
HETATM    5  S   UNK     1      63.039   6.338   5.952  1.00  0.00    -0.081 SA
HETATM    6  C   UNK     1      64.557   6.686   6.650  1.00  0.00     0.088 A 
ENDROOT
BRANCH   4   7
HETATM    7  C   UNK     1      62.393   7.667   3.589  1.00  0.00    -0.002 A 
HETATM    8  C   UNK     1      62.713   8.363   2.411  1.00  0.00     0.015 A 
HETATM    9  C   UNK     1      61.760   8.548   1.403  1.00  0.00     0.007 A 
HETATM   10  C   UNK     1      60.464   8.050   1.552  1.00  0.00    -0.062 A 
HETATM   11  C   UNK     1      60.127   7.376   2.730  1.00  0.00     0.007 A 
HETATM   12  C   UNK     1      59.463   8.236   0.450  1.00  0.00     0.048 C 
HETATM   13  C   UNK     1      61.081   7.193   3.738  1.00  0.00     0.015 A 
ENDBRANCH   4   7
BRANCH   1  14
HETATM   14  C   UNK     1      66.566   8.111   6.238  1.00  0.00     0.227 C 
HETATM   15  O   UNK     1      66.791   9.030   7.016  1.00  0.00    -0.643 OA
HETATM   16  O   UNK     1      67.594   7.478   5.630  1.00  0.00    -0.643 OA
ENDBRANCH   1  14
TORSDOF 2
ENDMDL
MODEL 8
REMARK VINA RESULT:      -4.5      4.984      6.553
REMARK  2 active torsions:
REMARK  status: ('A' for Active; 'I' for Inactive)
REMARK    1  A    between atoms: C_1  and  C_7 
REMARK    2  A    between atoms: C_4  and  C_8 
ROOT
HETATM    1  C   UNK     1      59.399   7.686   1.794  1.00  0.00     0.117 A 
HETATM    2  N   UNK     1      60.330   7.598   2.832  1.00  0.00    -0.344 N 
ATOM      3  HN  UNK     1      60.113   7.290   3.780  1.00  0.00     0.167 HD
HETATM    4  C   UNK     1      61.529   7.967   2.420  1.00  0.00     0.085 A 
HETATM    5  S   UNK     1      61.591   8.477   0.773  1.00  0.00    -0.081 SA
HETATM    6  C   UNK     1      59.925   8.149   0.603  1.00  0.00     0.088 A 
ENDROOT
BRANCH   4   7
HETATM    7  C   UNK     1      62.728   8.016   3.276  1.00  0.00    -0.002 A 
HETATM    8  C   UNK     1      62.934   9.028   4.228  1.00  0.00     0.015 A 
HETATM    9  C   UNK     1      64.069   9.028   5.045  1.00  0.00     0.007 A 
HETATM   10  C   UNK     1      65.029   8.019   4.926  1.00  0.00    -0.062 A 
HETATM   11  C   UNK     1      64.846   7.018   3.966  1.00  0.00     0.007 A 
HETATM   12  C   UNK     1      66.227   8.020   5.829  1.00  0.00     0.048 C 
HETATM   13  C   UNK     1      63.710   7.022   3.148  1.00  0.00     0.015 A 
ENDBRANCH   4   7
BRANCH   1  14
HETATM   14  C   UNK     1      57.993   7.328   1.957  1.00  0.00     0.227 C 
HETATM   15  O   UNK     1      57.162   7.307   1.057  1.00  0.00    -0.643 OA
HETATM   16  O   UNK     1      57.628   7.004   3.218  1.00  0.00    -0.643 OA
ENDBRANCH   1  14
TORSDOF 2
ENDMDL
MODEL 9
REMARK VINA RESULT:      -4.5      5.098      6.391
REMARK  2 active torsions:
REMARK  status: ('A' for Active; 'I' for Inactive)
REMARK    1  A    between atoms: C_1  and  C_7 
REMARK    2  A    between atoms: C_4  and  C_8 
ROOT
HETATM    1  C   UNK     1      61.820   9.917   3.489  1.00  0.00     0.117 A 
HETATM    2  N   UNK     1      60.654   9.175   3.288  1.00  0.00    -0.344 N 
ATOM      3  HN  UNK     1      59.794   9.546   2.886  1.00  0.00     0.167 HD
HETATM    4  C   UNK     1      60.817   7.927   3.689  1.00  0.00     0.085 A 
HETATM    5  S   UNK     1      62.369   7.592   4.364  1.00  0.00    -0.081 SA
HETATM    6  C   UNK     1      62.852   9.202   4.067  1.00  0.00     0.088 A 
ENDROOT
BRANCH   4   7
HETATM    7  C   UNK     1      59.770   6.891   3.641  1.00  0.00    -0.002 A 
HETATM    8  C   UNK     1      58.495   7.082   4.199  1.00  0.00     0.015 A 
HETATM    9  C   UNK     1      57.514   6.088   4.110  1.00  0.00     0.007 A 
HETATM   10  C   UNK     1      57.786   4.879   3.466  1.00  0.00    -0.062 A 
HETATM   11  C   UNK     1      59.059   4.668   2.927  1.00  0.00     0.007 A 
HETATM   12  C   UNK     1      56.713   3.835   3.357  1.00  0.00     0.048 C 
HETATM   13  C   UNK     1      60.040   5.663   3.019  1.00  0.00     0.015 A 
ENDBRANCH   4   7
BRANCH   1  14
HETATM   14  C   UNK     1      61.936  11.327   3.126  1.00  0.00     0.227 C 
HETATM   15  O   UNK     1      62.013  11.756   1.981  1.00  0.00    -0.643 OA
HETATM   16  O   UNK     1      61.957  12.185   4.170  1.00  0.00    -0.643 OA
ENDBRANCH   1  14
TORSDOF 2
ENDMDL
