MODEL 1
REMARK VINA RESULT:      -6.2      0.000      0.000
REMARK  1 active torsions:
REMARK  status: ('A' for Active; 'I' for Inactive)
REMARK    1  A    between atoms: C_3  and  C_9 
ROOT
HETATM    1  N   UNL     1      63.216   9.980   5.917  1.00  0.00    -0.264 N 
ATOM      2  HN  UNL     1      63.507   9.941   6.894  1.00  0.00     0.194 HD
HETATM    3  C   UNL     1      63.321   8.978   5.009  1.00  0.00     0.050 A 
HETATM    4  C   UNL     1      62.804   9.432   3.812  1.00  0.00     0.028 A 
HETATM    5  O   UNL     1      62.673  11.007   5.313  1.00  0.00    -0.237 OA
HETATM    6  C   UNL     1      62.414  10.716   4.060  1.00  0.00     0.111 A 
HETATM    7  C   UNL     1      62.635   8.841   2.559  1.00  0.00     0.058 A 
HETATM    8  C   UNL     1      61.841  11.518   3.075  1.00  0.00     0.043 A 
HETATM    9  C   UNL     1      62.049   9.619   1.541  1.00  0.00     0.117 A 
HETATM   10  C   UNL     1      61.657  10.954   1.796  1.00  0.00     0.045 A 
HETATM   11  F   UNL     1      61.856   9.086   0.310  1.00  0.00    -0.206 F 
ENDROOT
BRANCH   3  12
HETATM   12  C   UNL     1      63.926   7.622   5.279  1.00  0.00     0.042 C 
HETATM   13  C   UNL     1      65.350   7.739   5.850  1.00  0.00     0.038 C 
HETATM   14  C   UNL     1      65.946   6.336   6.013  1.00  0.00     0.233 C 
HETATM   15  N   UNL     1      65.107   5.514   6.899  1.00  0.00    -0.075 N 
HETATM   16  C   UNL     1      63.729   5.399   6.393  1.00  0.00     0.233 C 
HETATM   17  H   UNL     1      65.513   4.582   6.966  1.00  0.00     0.277 HD
HETATM   18  H   UNL     1      65.072   5.967   7.812  1.00  0.00     0.277 HD
HETATM   19  C   UNL     1      63.083   6.786   6.250  1.00  0.00     0.038 C 
ENDBRANCH   3  12
TORSDOF 1
ENDMDL
MODEL 2
REMARK VINA RESULT:      -6.0      2.589      5.521
REMARK  1 active torsions:
REMARK  status: ('A' for Active; 'I' for Inactive)
REMARK    1  A    between atoms: C_3  and  C_9 
ROOT
HETATM    1  N   UNL     1      62.799   8.238   6.261  1.00  0.00    -0.264 N 
ATOM      2  HN  UNL     1      61.977   8.792   6.501  1.00  0.00     0.194 HD
HETATM    3  C   UNL     1      63.469   8.268   5.082  1.00  0.00     0.050 A 
HETATM    4  C   UNL     1      64.523   7.381   5.168  1.00  0.00     0.028 A 
HETATM    5  O   UNL     1      63.398   7.369   7.036  1.00  0.00    -0.237 OA
HETATM    6  C   UNL     1      64.428   6.841   6.418  1.00  0.00     0.111 A 
HETATM    7  C   UNL     1      65.540   7.016   4.284  1.00  0.00     0.058 A 
HETATM    8  C   UNL     1      65.329   5.883   6.879  1.00  0.00     0.043 A 
HETATM    9  C   UNL     1      66.476   6.059   4.721  1.00  0.00     0.117 A 
HETATM   10  C   UNL     1      66.369   5.490   6.012  1.00  0.00     0.045 A 
HETATM   11  F   UNL     1      67.487   5.679   3.901  1.00  0.00    -0.206 F 
ENDROOT
BRANCH   3  12
HETATM   12  C   UNL     1      63.091   9.114   3.890  1.00  0.00     0.042 C 
HETATM   13  C   UNL     1      62.406   8.277   2.795  1.00  0.00     0.038 C 
HETATM   14  C   UNL     1      62.133   9.166   1.576  1.00  0.00     0.233 C 
HETATM   15  N   UNL     1      61.288  10.312   1.947  1.00  0.00    -0.075 N 
HETATM   16  C   UNL     1      61.904  11.123   3.009  1.00  0.00     0.233 C 
HETATM   17  H   UNL     1      61.147  10.897   1.124  1.00  0.00     0.277 HD
HETATM   18  H   UNL     1      60.401   9.951   2.298  1.00  0.00     0.277 HD
HETATM   19  C   UNL     1      62.161  10.274   4.264  1.00  0.00     0.038 C 
ENDBRANCH   3  12
TORSDOF 1
ENDMDL
MODEL 3
REMARK VINA RESULT:      -5.8      2.289      2.915
REMARK  1 active torsions:
REMARK  status: ('A' for Active; 'I' for Inactive)
REMARK    1  A    between atoms: C_3  and  C_9 
ROOT
HETATM    1  N   UNL     1      63.916   6.867   3.375  1.00  0.00    -0.264 N 
ATOM      2  HN  UNL     1      64.334   5.942   3.277  1.00  0.00     0.194 HD
HETATM    3  C   UNL     1      64.002   7.674   4.462  1.00  0.00     0.050 A 
HETATM    4  C   UNL     1      63.311   8.836   4.185  1.00  0.00     0.028 A 
HETATM    5  O   UNL     1      63.200   7.491   2.473  1.00  0.00    -0.237 OA
HETATM    6  C   UNL     1      62.825   8.666   2.922  1.00  0.00     0.111 A 
HETATM    7  C   UNL     1      63.081  10.007   4.910  1.00  0.00     0.058 A 
HETATM    8  C   UNL     1      62.057   9.640   2.287  1.00  0.00     0.043 A 
HETATM    9  C   UNL     1      62.318  11.019   4.296  1.00  0.00     0.117 A 
HETATM   10  C   UNL     1      61.804  10.836   2.990  1.00  0.00     0.045 A 
HETATM   11  F   UNL     1      62.076  12.178   4.957  1.00  0.00    -0.206 F 
ENDROOT
BRANCH   3  12
HETATM   12  C   UNL     1      64.712   7.325   5.747  1.00  0.00     0.042 C 
HETATM   13  C   UNL     1      64.803   5.802   5.951  1.00  0.00     0.038 C 
HETATM   14  C   UNL     1      65.445   5.512   7.312  1.00  0.00     0.233 C 
HETATM   15  N   UNL     1      66.782   6.120   7.397  1.00  0.00    -0.075 N 
HETATM   16  C   UNL     1      66.735   7.575   7.185  1.00  0.00     0.233 C 
HETATM   17  H   UNL     1      67.172   5.933   8.321  1.00  0.00     0.277 HD
HETATM   18  H   UNL     1      67.363   5.712   6.664  1.00  0.00     0.277 HD
HETATM   19  C   UNL     1      66.129   7.907   5.812  1.00  0.00     0.038 C 
ENDBRANCH   3  12
TORSDOF 1
ENDMDL
MODEL 4
REMARK VINA RESULT:      -5.1      2.783      3.333
REMARK  1 active torsions:
REMARK  status: ('A' for Active; 'I' for Inactive)
REMARK    1  A    between atoms: C_3  and  C_9 
ROOT
HETATM    1  N   UNL     1      62.961   7.473   1.970  1.00  0.00    -0.264 N 
ATOM      2  HN  UNL     1      63.082   6.673   1.348  1.00  0.00     0.194 HD
HETATM    3  C   UNL     1      63.407   7.568   3.247  1.00  0.00     0.050 A 
HETATM    4  C   UNL     1      63.047   8.810   3.731  1.00  0.00     0.028 A 
HETATM    5  O   UNL     1      62.347   8.592   1.679  1.00  0.00    -0.237 OA
HETATM    6  C   UNL     1      62.380   9.410   2.704  1.00  0.00     0.111 A 
HETATM    7  C   UNL     1      63.253   9.456   4.952  1.00  0.00     0.058 A 
HETATM    8  C   UNL     1      61.849  10.694   2.816  1.00  0.00     0.043 A 
HETATM    9  C   UNL     1      62.740  10.759   5.098  1.00  0.00     0.117 A 
HETATM   10  C   UNL     1      62.037  11.376   4.036  1.00  0.00     0.045 A 
HETATM   11  F   UNL     1      62.922  11.431   6.262  1.00  0.00    -0.206 F 
ENDROOT
BRANCH   3  12
HETATM   12  C   UNL     1      64.142   6.482   3.994  1.00  0.00     0.042 C 
HETATM   13  C   UNL     1      63.847   5.090   3.407  1.00  0.00     0.038 C 
HETATM   14  C   UNL     1      64.541   4.024   4.262  1.00  0.00     0.233 C 
HETATM   15  N   UNL     1      65.992   4.260   4.311  1.00  0.00    -0.075 N 
HETATM   16  C   UNL     1      66.310   5.593   4.849  1.00  0.00     0.233 C 
HETATM   17  H   UNL     1      66.421   3.553   4.907  1.00  0.00     0.277 HD
HETATM   18  H   UNL     1      66.355   4.208   3.359  1.00  0.00     0.277 HD
HETATM   19  C   UNL     1      65.660   6.694   3.996  1.00  0.00     0.038 C 
ENDBRANCH   3  12
TORSDOF 1
ENDMDL
MODEL 5
REMARK VINA RESULT:      -5.1      1.827      2.297
REMARK  1 active torsions:
REMARK  status: ('A' for Active; 'I' for Inactive)
REMARK    1  A    between atoms: C_3  and  C_9 
ROOT
HETATM    1  N   UNL     1      63.902   8.437   6.022  1.00  0.00    -0.264 N 
ATOM      2  HN  UNL     1      64.318   8.132   6.902  1.00  0.00     0.194 HD
HETATM    3  C   UNL     1      63.859   7.726   4.868  1.00  0.00     0.050 A 
HETATM    4  C   UNL     1      63.202   8.489   3.923  1.00  0.00     0.028 A 
HETATM    5  O   UNL     1      63.312   9.586   5.803  1.00  0.00    -0.237 OA
HETATM    6  C   UNL     1      62.883   9.650   4.566  1.00  0.00     0.111 A 
HETATM    7  C   UNL     1      62.853   8.267   2.589  1.00  0.00     0.058 A 
HETATM    8  C   UNL     1      62.208  10.688   3.926  1.00  0.00     0.043 A 
HETATM    9  C   UNL     1      62.159   9.289   1.914  1.00  0.00     0.117 A 
HETATM   10  C   UNL     1      61.840  10.498   2.578  1.00  0.00     0.045 A 
HETATM   11  F   UNL     1      61.791   9.116   0.621  1.00  0.00    -0.206 F 
ENDROOT
BRANCH   3  12
HETATM   12  C   UNL     1      64.456   6.355   4.670  1.00  0.00     0.042 C 
HETATM   13  C   UNL     1      63.404   5.341   4.189  1.00  0.00     0.038 C 
HETATM   14  C   UNL     1      64.045   3.951   4.098  1.00  0.00     0.233 C 
HETATM   15  N   UNL     1      65.195   3.968   3.181  1.00  0.00    -0.075 N 
HETATM   16  C   UNL     1      66.214   4.944   3.601  1.00  0.00     0.233 C 
HETATM   17  H   UNL     1      65.616   3.039   3.162  1.00  0.00     0.277 HD
HETATM   18  H   UNL     1      64.860   4.238   2.256  1.00  0.00     0.277 HD
HETATM   19  C   UNL     1      65.617   6.359   3.669  1.00  0.00     0.038 C 
ENDBRANCH   3  12
TORSDOF 1
ENDMDL
MODEL 6
REMARK VINA RESULT:      -5.0      2.700      5.647
REMARK  1 active torsions:
REMARK  status: ('A' for Active; 'I' for Inactive)
REMARK    1  A    between atoms: C_3  and  C_9 
ROOT
HETATM    1  N   UNL     1      65.088   8.779   5.935  1.00  0.00    -0.264 N 
ATOM      2  HN  UNL     1      65.366   9.748   5.781  1.00  0.00     0.194 HD
HETATM    3  C   UNL     1      63.960   8.186   5.470  1.00  0.00     0.050 A 
HETATM    4  C   UNL     1      63.967   6.871   5.889  1.00  0.00     0.028 A 
HETATM    5  O   UNL     1      65.756   7.882   6.616  1.00  0.00    -0.237 OA
HETATM    6  C   UNL     1      65.119   6.735   6.608  1.00  0.00     0.111 A 
HETATM    7  C   UNL     1      63.090   5.802   5.696  1.00  0.00     0.058 A 
HETATM    8  C   UNL     1      65.479   5.530   7.207  1.00  0.00     0.043 A 
HETATM    9  C   UNL     1      63.427   4.564   6.278  1.00  0.00     0.117 A 
HETATM   10  C   UNL     1      64.615   4.428   7.034  1.00  0.00     0.045 A 
HETATM   11  F   UNL     1      62.611   3.494   6.111  1.00  0.00    -0.206 F 
ENDROOT
BRANCH   3  12
HETATM   12  C   UNL     1      62.888   8.875   4.662  1.00  0.00     0.042 C 
HETATM   13  C   UNL     1      62.982  10.406   4.781  1.00  0.00     0.038 C 
HETATM   14  C   UNL     1      61.814  11.045   4.020  1.00  0.00     0.233 C 
HETATM   15  N   UNL     1      61.831  10.640   2.606  1.00  0.00    -0.075 N 
HETATM   16  C   UNL     1      61.764   9.178   2.456  1.00  0.00     0.233 C 
HETATM   17  H   UNL     1      61.030  11.058   2.134  1.00  0.00     0.277 HD
HETATM   18  H   UNL     1      62.708  10.961   2.195  1.00  0.00     0.277 HD
HETATM   19  C   UNL     1      62.941   8.501   3.175  1.00  0.00     0.038 C 
ENDBRANCH   3  12
TORSDOF 1
ENDMDL
MODEL 7
REMARK VINA RESULT:      -4.9      2.137      2.948
REMARK  1 active torsions:
REMARK  status: ('A' for Active; 'I' for Inactive)
REMARK    1  A    between atoms: C_3  and  C_9 
ROOT
HETATM    1  N   UNL     1      62.893   6.307   6.192  1.00  0.00    -0.264 N 
ATOM      2  HN  UNL     1      63.172   5.716   6.975  1.00  0.00     0.194 HD
HETATM    3  C   UNL     1      63.672   7.219   5.558  1.00  0.00     0.050 A 
HETATM    4  C   UNL     1      62.922   7.793   4.552  1.00  0.00     0.028 A 
HETATM    5  O   UNL     1      61.717   6.322   5.616  1.00  0.00    -0.237 OA
HETATM    6  C   UNL     1      61.699   7.194   4.636  1.00  0.00     0.111 A 
HETATM    7  C   UNL     1      63.202   8.760   3.583  1.00  0.00     0.058 A 
HETATM    8  C   UNL     1      60.654   7.521   3.775  1.00  0.00     0.043 A 
HETATM    9  C   UNL     1      62.172   9.108   2.688  1.00  0.00     0.117 A 
HETATM   10  C   UNL     1      60.901   8.494   2.785  1.00  0.00     0.045 A 
HETATM   11  F   UNL     1      62.400  10.035   1.725  1.00  0.00    -0.206 F 
ENDROOT
BRANCH   3  12
HETATM   12  C   UNL     1      65.098   7.548   5.927  1.00  0.00     0.042 C 
HETATM   13  C   UNL     1      65.533   6.823   7.213  1.00  0.00     0.038 C 
HETATM   14  C   UNL     1      66.951   7.269   7.588  1.00  0.00     0.233 C 
HETATM   15  N   UNL     1      67.893   6.982   6.496  1.00  0.00    -0.075 N 
HETATM   16  C   UNL     1      67.494   7.644   5.243  1.00  0.00     0.233 C 
HETATM   17  H   UNL     1      68.820   7.313   6.764  1.00  0.00     0.277 HD
HETATM   18  H   UNL     1      67.895   5.974   6.335  1.00  0.00     0.277 HD
HETATM   19  C   UNL     1      66.090   7.194   4.813  1.00  0.00     0.038 C 
ENDBRANCH   3  12
TORSDOF 1
ENDMDL
MODEL 8
REMARK VINA RESULT:      -4.9      1.825      2.499
REMARK  1 active torsions:
REMARK  status: ('A' for Active; 'I' for Inactive)
REMARK    1  A    between atoms: C_3  and  C_9 
ROOT
HETATM    1  N   UNL     1      64.807   8.656   6.014  1.00  0.00    -0.264 N 
ATOM      2  HN  UNL     1      65.259   8.915   6.891  1.00  0.00     0.194 HD
HETATM    3  C   UNL     1      64.965   7.486   5.347  1.00  0.00     0.050 A 
HETATM    4  C   UNL     1      64.172   7.529   4.217  1.00  0.00     0.028 A 
HETATM    5  O   UNL     1      63.968   9.392   5.330  1.00  0.00    -0.237 OA
HETATM    6  C   UNL     1      63.570   8.753   4.256  1.00  0.00     0.111 A 
HETATM    7  C   UNL     1      63.923   6.618   3.189  1.00  0.00     0.058 A 
HETATM    8  C   UNL     1      62.685   9.172   3.264  1.00  0.00     0.043 A 
HETATM    9  C   UNL     1      63.026   7.004   2.175  1.00  0.00     0.117 A 
HETATM   10  C   UNL     1      62.411   8.278   2.209  1.00  0.00     0.045 A 
HETATM   11  F   UNL     1      62.745   6.150   1.160  1.00  0.00    -0.206 F 
ENDROOT
BRANCH   3  12
HETATM   12  C   UNL     1      65.877   6.361   5.772  1.00  0.00     0.042 C 
HETATM   13  C   UNL     1      67.120   6.886   6.512  1.00  0.00     0.038 C 
HETATM   14  C   UNL     1      68.050   5.711   6.833  1.00  0.00     0.233 C 
HETATM   15  N   UNL     1      67.356   4.705   7.651  1.00  0.00    -0.075 N 
HETATM   16  C   UNL     1      66.148   4.196   6.980  1.00  0.00     0.233 C 
HETATM   17  H   UNL     1      67.990   3.926   7.825  1.00  0.00     0.277 HD
HETATM   18  H   UNL     1      67.070   5.148   8.524  1.00  0.00     0.277 HD
HETATM   19  C   UNL     1      65.171   5.342   6.674  1.00  0.00     0.038 C 
ENDBRANCH   3  12
TORSDOF 1
ENDMDL
MODEL 9
REMARK VINA RESULT:      -4.8      3.656      6.290
REMARK  1 active torsions:
REMARK  status: ('A' for Active; 'I' for Inactive)
REMARK    1  A    between atoms: C_3  and  C_9 
ROOT
HETATM    1  N   UNL     1      65.496   8.485   6.247  1.00  0.00    -0.264 N 
ATOM      2  HN  UNL     1      65.208   9.380   5.852  1.00  0.00     0.194 HD
HETATM    3  C   UNL     1      64.935   7.278   5.989  1.00  0.00     0.050 A 
HETATM    4  C   UNL     1      65.623   6.325   6.713  1.00  0.00     0.028 A 
HETATM    5  O   UNL     1      66.474   8.294   7.096  1.00  0.00    -0.237 OA
HETATM    6  C   UNL     1      66.579   7.021   7.394  1.00  0.00     0.111 A 
HETATM    7  C   UNL     1      65.504   4.938   6.823  1.00  0.00     0.058 A 
HETATM    8  C   UNL     1      67.480   6.394   8.251  1.00  0.00     0.043 A 
HETATM    9  C   UNL     1      66.406   4.269   7.672  1.00  0.00     0.117 A 
HETATM   10  C   UNL     1      67.389   4.993   8.387  1.00  0.00     0.045 A 
HETATM   11  F   UNL     1      66.336   2.921   7.805  1.00  0.00    -0.206 F 
ENDROOT
BRANCH   3  12
HETATM   12  C   UNL     1      63.749   7.048   5.084  1.00  0.00     0.042 C 
HETATM   13  C   UNL     1      62.418   7.230   5.836  1.00  0.00     0.038 C 
HETATM   14  C   UNL     1      61.256   6.891   4.895  1.00  0.00     0.233 C 
HETATM   15  N   UNL     1      61.289   7.747   3.698  1.00  0.00    -0.075 N 
HETATM   16  C   UNL     1      62.559   7.612   2.966  1.00  0.00     0.233 C 
HETATM   17  H   UNL     1      60.522   7.480   3.081  1.00  0.00     0.277 HD
HETATM   18  H   UNL     1      61.198   8.717   3.999  1.00  0.00     0.277 HD
HETATM   19  C   UNL     1      63.748   7.979   3.867  1.00  0.00     0.038 C 
ENDBRANCH   3  12
TORSDOF 1
ENDMDL
