MODEL 1
REMARK VINA RESULT:      -5.4      0.000      0.000
REMARK  2 active torsions:
REMARK  status: ('A' for Active; 'I' for Inactive)
REMARK    1  A    between atoms: C_5  and  C_10 
REMARK    2  A    between atoms: O_7  and  C_10 
ROOT
HETATM    1  O   UNL     1      64.611   9.475   5.387  1.00  0.00    -0.343 OA
HETATM    2  C   UNL     1      64.912   8.291   4.757  1.00  0.00     0.075 A 
HETATM    3  C   UNL     1      64.052   7.658   3.849  1.00  0.00    -0.025 A 
HETATM    4  C   UNL     1      62.721   8.261   3.502  1.00  0.00     0.044 C 
HETATM    5  C   UNL     1      63.213   9.815   5.360  1.00  0.00     0.152 C 
HETATM    6  C   UNL     1      62.665   9.720   3.938  1.00  0.00     0.039 C 
HETATM    7  C   UNL     1      66.165   7.748   5.031  1.00  0.00     0.037 A 
HETATM    8  C   UNL     1      64.435   6.434   3.285  1.00  0.00     0.010 A 
HETATM    9  C   UNL     1      66.550   6.541   4.447  1.00  0.00     0.003 A 
HETATM   10  C   UNL     1      65.678   5.878   3.580  1.00  0.00     0.001 A 
ENDROOT
BRANCH   5  11
HETATM   11  C   UNL     1      63.046  11.223   5.946  1.00  0.00     0.196 C 
BRANCH  11  12
HETATM   12  O   UNL     1      64.257  11.720   6.510  1.00  0.00    -0.398 OA
HETATM   13  H   UNL     1      64.085  12.567   6.951  1.00  0.00     0.209 HD
ENDBRANCH  11  12
ENDBRANCH   5  11
TORSDOF 2
ENDMDL
MODEL 2
REMARK VINA RESULT:      -5.3      1.383      3.842
REMARK  2 active torsions:
REMARK  status: ('A' for Active; 'I' for Inactive)
REMARK    1  A    between atoms: C_5  and  C_10 
REMARK    2  A    between atoms: O_7  and  C_10 
ROOT
HETATM    1  O   UNL     1      64.843   9.112   5.885  1.00  0.00    -0.343 OA
HETATM    2  C   UNL     1      63.845   9.463   5.008  1.00  0.00     0.075 A 
HETATM    3  C   UNL     1      63.438   8.658   3.935  1.00  0.00    -0.025 A 
HETATM    4  C   UNL     1      64.084   7.325   3.685  1.00  0.00     0.044 C 
HETATM    5  C   UNL     1      65.701   8.060   5.405  1.00  0.00     0.152 C 
HETATM    6  C   UNL     1      64.874   6.876   4.909  1.00  0.00     0.039 C 
HETATM    7  C   UNL     1      63.202  10.673   5.260  1.00  0.00     0.037 A 
HETATM    8  C   UNL     1      62.434   9.121   3.075  1.00  0.00     0.010 A 
HETATM    9  C   UNL     1      62.186  11.117   4.413  1.00  0.00     0.003 A 
HETATM   10  C   UNL     1      61.809  10.344   3.313  1.00  0.00     0.001 A 
ENDROOT
BRANCH   5  11
HETATM   11  C   UNL     1      66.655   7.660   6.538  1.00  0.00     0.196 C 
BRANCH  11  12
HETATM   12  O   UNL     1      67.039   8.773   7.340  1.00  0.00    -0.398 OA
HETATM   13  H   UNL     1      67.232   8.472   8.242  1.00  0.00     0.209 HD
ENDBRANCH  11  12
ENDBRANCH   5  11
TORSDOF 2
ENDMDL
MODEL 3
REMARK VINA RESULT:      -4.9      2.151      4.176
REMARK  2 active torsions:
REMARK  status: ('A' for Active; 'I' for Inactive)
REMARK    1  A    between atoms: C_5  and  C_10 
REMARK    2  A    between atoms: O_7  and  C_10 
ROOT
HETATM    1  O   UNL     1      62.883   8.785   5.247  1.00  0.00    -0.343 OA
HETATM    2  C   UNL     1      62.544   9.473   4.107  1.00  0.00     0.075 A 
HETATM    3  C   UNL     1      62.508   8.890   2.833  1.00  0.00    -0.025 A 
HETATM    4  C   UNL     1      62.841   7.438   2.642  1.00  0.00     0.044 C 
HETATM    5  C   UNL     1      63.573   7.546   5.001  1.00  0.00     0.152 C 
HETATM    6  C   UNL     1      62.815   6.703   3.977  1.00  0.00     0.039 C 
HETATM    7  C   UNL     1      62.183  10.808   4.278  1.00  0.00     0.037 A 
HETATM    8  C   UNL     1      62.184   9.685   1.726  1.00  0.00     0.010 A 
HETATM    9  C   UNL     1      61.837  11.588   3.174  1.00  0.00     0.003 A 
HETATM   10  C   UNL     1      61.848  11.027   1.895  1.00  0.00     0.001 A 
ENDROOT
BRANCH   5  11
HETATM   11  C   UNL     1      63.740   6.811   6.338  1.00  0.00     0.196 C 
BRANCH  11  12
HETATM   12  O   UNL     1      64.850   7.300   7.087  1.00  0.00    -0.398 OA
HETATM   13  H   UNL     1      65.212   8.088   6.653  1.00  0.00     0.209 HD
ENDBRANCH  11  12
ENDBRANCH   5  11
TORSDOF 2
ENDMDL
MODEL 4
REMARK VINA RESULT:      -4.5      2.304      3.964
REMARK  2 active torsions:
REMARK  status: ('A' for Active; 'I' for Inactive)
REMARK    1  A    between atoms: C_5  and  C_10 
REMARK    2  A    between atoms: O_7  and  C_10 
ROOT
HETATM    1  O   UNL     1      63.805   6.967   3.789  1.00  0.00    -0.343 OA
HETATM    2  C   UNL     1      63.104   7.700   2.862  1.00  0.00     0.075 A 
HETATM    3  C   UNL     1      62.634   9.000   3.098  1.00  0.00    -0.025 A 
HETATM    4  C   UNL     1      62.886   9.682   4.412  1.00  0.00     0.044 C 
HETATM    5  C   UNL     1      63.685   7.457   5.137  1.00  0.00     0.152 C 
HETATM    6  C   UNL     1      63.976   8.955   5.191  1.00  0.00     0.039 C 
HETATM    7  C   UNL     1      62.908   7.098   1.621  1.00  0.00     0.037 A 
HETATM    8  C   UNL     1      61.898   9.652   2.101  1.00  0.00     0.010 A 
HETATM    9  C   UNL     1      62.195   7.764   0.623  1.00  0.00     0.003 A 
HETATM   10  C   UNL     1      61.680   9.039   0.868  1.00  0.00     0.001 A 
ENDROOT
BRANCH   5  11
HETATM   11  C   UNL     1      64.639   6.654   6.030  1.00  0.00     0.196 C 
BRANCH  11  12
HETATM   12  O   UNL     1      64.622   7.105   7.382  1.00  0.00    -0.398 OA
HETATM   13  H   UNL     1      64.324   6.385   7.959  1.00  0.00     0.209 HD
ENDBRANCH  11  12
ENDBRANCH   5  11
TORSDOF 2
ENDMDL
MODEL 5
REMARK VINA RESULT:      -4.4      2.905      5.032
REMARK  2 active torsions:
REMARK  status: ('A' for Active; 'I' for Inactive)
REMARK    1  A    between atoms: C_5  and  C_10 
REMARK    2  A    between atoms: O_7  and  C_10 
ROOT
HETATM    1  O   UNL     1      62.859   7.621   3.309  1.00  0.00    -0.343 OA
HETATM    2  C   UNL     1      62.513   8.941   3.143  1.00  0.00     0.075 A 
HETATM    3  C   UNL     1      62.147   9.496   1.910  1.00  0.00    -0.025 A 
HETATM    4  C   UNL     1      62.105   8.651   0.668  1.00  0.00     0.044 C 
HETATM    5  C   UNL     1      63.201   6.947   2.084  1.00  0.00     0.152 C 
HETATM    6  C   UNL     1      62.121   7.171   1.028  1.00  0.00     0.039 C 
HETATM    7  C   UNL     1      62.498   9.723   4.297  1.00  0.00     0.037 A 
HETATM    8  C   UNL     1      61.846  10.862   1.837  1.00  0.00     0.010 A 
HETATM    9  C   UNL     1      62.173  11.078   4.221  1.00  0.00     0.003 A 
HETATM   10  C   UNL     1      61.856  11.650   2.987  1.00  0.00     0.001 A 
ENDROOT
BRANCH   5  11
HETATM   11  C   UNL     1      63.402   5.457   2.392  1.00  0.00     0.196 C 
BRANCH  11  12
HETATM   12  O   UNL     1      63.550   5.209   3.788  1.00  0.00    -0.398 OA
HETATM   13  H   UNL     1      62.818   4.654   4.097  1.00  0.00     0.209 HD
ENDBRANCH  11  12
ENDBRANCH   5  11
TORSDOF 2
ENDMDL
MODEL 6
REMARK VINA RESULT:      -4.4      3.105      4.701
REMARK  2 active torsions:
REMARK  status: ('A' for Active; 'I' for Inactive)
REMARK    1  A    between atoms: C_5  and  C_10 
REMARK    2  A    between atoms: O_7  and  C_10 
ROOT
HETATM    1  O   UNL     1      61.098   9.063   2.276  1.00  0.00    -0.343 OA
HETATM    2  C   UNL     1      62.108   9.049   3.208  1.00  0.00     0.075 A 
HETATM    3  C   UNL     1      63.115   8.075   3.243  1.00  0.00    -0.025 A 
HETATM    4  C   UNL     1      63.150   6.968   2.229  1.00  0.00     0.044 C 
HETATM    5  C   UNL     1      60.915   7.810   1.591  1.00  0.00     0.152 C 
HETATM    6  C   UNL     1      62.246   7.297   1.047  1.00  0.00     0.039 C 
HETATM    7  C   UNL     1      62.116  10.100   4.123  1.00  0.00     0.037 A 
HETATM    8  C   UNL     1      64.082   8.127   4.256  1.00  0.00     0.010 A 
HETATM    9  C   UNL     1      63.097  10.159   5.114  1.00  0.00     0.003 A 
HETATM   10  C   UNL     1      64.075   9.165   5.186  1.00  0.00     0.001 A 
ENDROOT
BRANCH   5  11
HETATM   11  C   UNL     1      59.880   8.015   0.477  1.00  0.00     0.196 C 
BRANCH  11  12
HETATM   12  O   UNL     1      58.707   8.676   0.944  1.00  0.00    -0.398 OA
HETATM   13  H   UNL     1      58.189   8.065   1.492  1.00  0.00     0.209 HD
ENDBRANCH  11  12
ENDBRANCH   5  11
TORSDOF 2
ENDMDL
MODEL 7
REMARK VINA RESULT:      -4.2      2.008      2.640
REMARK  2 active torsions:
REMARK  status: ('A' for Active; 'I' for Inactive)
REMARK    1  A    between atoms: C_5  and  C_10 
REMARK    2  A    between atoms: O_7  and  C_10 
ROOT
HETATM    1  O   UNL     1      64.263   8.711   4.313  1.00  0.00    -0.343 OA
HETATM    2  C   UNL     1      64.942   7.962   5.244  1.00  0.00     0.075 A 
HETATM    3  C   UNL     1      64.310   7.145   6.191  1.00  0.00    -0.025 A 
HETATM    4  C   UNL     1      62.812   7.036   6.235  1.00  0.00     0.044 C 
HETATM    5  C   UNL     1      62.871   8.909   4.622  1.00  0.00     0.152 C 
HETATM    6  C   UNL     1      62.199   7.578   4.949  1.00  0.00     0.039 C 
HETATM    7  C   UNL     1      66.333   8.015   5.180  1.00  0.00     0.037 A 
HETATM    8  C   UNL     1      65.090   6.448   7.122  1.00  0.00     0.010 A 
HETATM    9  C   UNL     1      67.105   7.297   6.095  1.00  0.00     0.003 A 
HETATM   10  C   UNL     1      66.481   6.521   7.074  1.00  0.00     0.001 A 
ENDROOT
BRANCH   5  11
HETATM   11  C   UNL     1      62.206   9.611   3.431  1.00  0.00     0.196 C 
BRANCH  11  12
HETATM   12  O   UNL     1      61.233  10.567   3.842  1.00  0.00    -0.398 OA
HETATM   13  H   UNL     1      61.652  11.437   3.933  1.00  0.00     0.209 HD
ENDBRANCH  11  12
ENDBRANCH   5  11
TORSDOF 2
ENDMDL
MODEL 8
REMARK VINA RESULT:      -4.1      3.087      4.945
REMARK  2 active torsions:
REMARK  status: ('A' for Active; 'I' for Inactive)
REMARK    1  A    between atoms: C_5  and  C_10 
REMARK    2  A    between atoms: O_7  and  C_10 
ROOT
HETATM    1  O   UNL     1      65.462   6.175   7.536  1.00  0.00    -0.343 OA
HETATM    2  C   UNL     1      64.877   6.925   6.544  1.00  0.00     0.075 A 
HETATM    3  C   UNL     1      65.604   7.678   5.612  1.00  0.00    -0.025 A 
HETATM    4  C   UNL     1      67.106   7.700   5.645  1.00  0.00     0.044 C 
HETATM    5  C   UNL     1      66.834   6.522   7.801  1.00  0.00     0.152 C 
HETATM    6  C   UNL     1      67.639   6.559   6.504  1.00  0.00     0.039 C 
HETATM    7  C   UNL     1      63.487   6.872   6.470  1.00  0.00     0.037 A 
HETATM    8  C   UNL     1      64.914   8.439   4.659  1.00  0.00     0.010 A 
HETATM    9  C   UNL     1      62.806   7.612   5.503  1.00  0.00     0.003 A 
HETATM   10  C   UNL     1      63.522   8.405   4.603  1.00  0.00     0.001 A 
ENDROOT
BRANCH   5  11
HETATM   11  C   UNL     1      67.404   5.507   8.801  1.00  0.00     0.196 C 
BRANCH  11  12
HETATM   12  O   UNL     1      66.750   4.244   8.721  1.00  0.00    -0.398 OA
HETATM   13  H   UNL     1      66.128   4.248   7.976  1.00  0.00     0.209 HD
ENDBRANCH  11  12
ENDBRANCH   5  11
TORSDOF 2
ENDMDL
MODEL 9
REMARK VINA RESULT:      -4.1      2.677      3.755
REMARK  2 active torsions:
REMARK  status: ('A' for Active; 'I' for Inactive)
REMARK    1  A    between atoms: C_5  and  C_10 
REMARK    2  A    between atoms: O_7  and  C_10 
ROOT
HETATM    1  O   UNL     1      64.293   7.225   7.101  1.00  0.00    -0.343 OA
HETATM    2  C   UNL     1      65.556   6.711   7.277  1.00  0.00     0.075 A 
HETATM    3  C   UNL     1      66.481   6.556   6.235  1.00  0.00    -0.025 A 
HETATM    4  C   UNL     1      66.133   6.961   4.831  1.00  0.00     0.044 C 
HETATM    5  C   UNL     1      63.846   7.223   5.733  1.00  0.00     0.152 C 
HETATM    6  C   UNL     1      64.898   7.854   4.823  1.00  0.00     0.039 C 
HETATM    7  C   UNL     1      65.909   6.380   8.584  1.00  0.00     0.037 A 
HETATM    8  C   UNL     1      67.732   5.989   6.510  1.00  0.00     0.010 A 
HETATM    9  C   UNL     1      67.167   5.839   8.855  1.00  0.00     0.003 A 
HETATM   10  C   UNL     1      68.075   5.634   7.814  1.00  0.00     0.001 A 
ENDROOT
BRANCH   5  11
HETATM   11  C   UNL     1      62.506   7.967   5.662  1.00  0.00     0.196 C 
BRANCH  11  12
HETATM   12  O   UNL     1      62.390   8.760   4.484  1.00  0.00    -0.398 OA
HETATM   13  H   UNL     1      63.273   9.031   4.188  1.00  0.00     0.209 HD
ENDBRANCH  11  12
ENDBRANCH   5  11
TORSDOF 2
ENDMDL
