MODEL 1
REMARK VINA RESULT:      -4.9      0.000      0.000
REMARK  2 active torsions:
REMARK  status: ('A' for Active; 'I' for Inactive)
REMARK    1  A    between atoms: C_1  and  C_5 
REMARK    2  A    between atoms: C_2  and  C_4 
ROOT
HETATM    1  C   UNL     1      63.126   9.747   4.633  1.00  0.00     0.040 A 
HETATM    2  C   UNL     1      63.659   7.396   3.178  1.00  0.00    -0.025 A 
HETATM    3  C   UNL     1      62.387   9.447   3.486  1.00  0.00     0.019 A 
HETATM    4  C   UNL     1      64.127   8.867   5.060  1.00  0.00     0.019 A 
HETATM    5  C   UNL     1      62.644   8.275   2.771  1.00  0.00     0.013 A 
HETATM    6  C   UNL     1      64.388   7.698   4.337  1.00  0.00     0.013 A 
ENDROOT
BRANCH   2   7
HETATM    7  C   UNL     1      63.964   6.193   2.407  1.00  0.00    -0.019 A 
HETATM    8  C   UNL     1      64.764   5.182   2.911  1.00  0.00     0.061 A 
HETATM    9  S   UNL     1      64.954   3.876   1.823  1.00  0.00    -0.113 SA
HETATM   10  C   UNL     1      63.957   4.633   0.662  1.00  0.00     0.050 A 
HETATM   11  C   UNL     1      63.492   5.855   1.096  1.00  0.00     0.020 A 
ENDBRANCH   2   7
BRANCH   1  12
HETATM   12  C   UNL     1      62.814  11.000   5.359  1.00  0.00     0.209 C 
HETATM   13  O   UNL     1      63.199  11.291   6.475  1.00  0.00    -0.644 OA
HETATM   14  O   UNL     1      62.036  11.836   4.648  1.00  0.00    -0.644 OA
ENDBRANCH   1  12
TORSDOF 2
ENDMDL
MODEL 2
REMARK VINA RESULT:      -4.8      1.568      2.325
REMARK  2 active torsions:
REMARK  status: ('A' for Active; 'I' for Inactive)
REMARK    1  A    between atoms: C_1  and  C_5 
REMARK    2  A    between atoms: C_2  and  C_4 
ROOT
HETATM    1  C   UNL     1      62.209   9.911   2.561  1.00  0.00     0.040 A 
HETATM    2  C   UNL     1      62.847   7.262   1.852  1.00  0.00    -0.025 A 
HETATM    3  C   UNL     1      62.758   9.041   3.508  1.00  0.00     0.019 A 
HETATM    4  C   UNL     1      61.987   9.459   1.256  1.00  0.00     0.019 A 
HETATM    5  C   UNL     1      63.085   7.731   3.152  1.00  0.00     0.013 A 
HETATM    6  C   UNL     1      62.307   8.143   0.905  1.00  0.00     0.013 A 
ENDROOT
BRANCH   2   7
HETATM    7  C   UNL     1      63.143   5.878   1.488  1.00  0.00    -0.019 A 
HETATM    8  C   UNL     1      62.999   4.836   2.388  1.00  0.00     0.061 A 
HETATM    9  S   UNL     1      63.390   3.313   1.715  1.00  0.00    -0.113 SA
HETATM   10  C   UNL     1      63.745   4.019   0.201  1.00  0.00     0.050 A 
HETATM   11  C   UNL     1      63.570   5.385   0.212  1.00  0.00     0.020 A 
ENDBRANCH   2   7
BRANCH   1  12
HETATM   12  C   UNL     1      61.882  11.292   2.987  1.00  0.00     0.209 C 
HETATM   13  O   UNL     1      61.688  11.657   4.131  1.00  0.00    -0.644 OA
HETATM   14  O   UNL     1      61.817  12.154   1.958  1.00  0.00    -0.644 OA
ENDBRANCH   1  12
TORSDOF 2
ENDMDL
MODEL 3
REMARK VINA RESULT:      -4.8      4.145      5.501
REMARK  2 active torsions:
REMARK  status: ('A' for Active; 'I' for Inactive)
REMARK    1  A    between atoms: C_1  and  C_5 
REMARK    2  A    between atoms: C_2  and  C_4 
ROOT
HETATM    1  C   UNL     1      65.969   6.583   7.026  1.00  0.00     0.040 A 
HETATM    2  C   UNL     1      64.254   8.102   5.389  1.00  0.00    -0.025 A 
HETATM    3  C   UNL     1      64.633   6.204   6.864  1.00  0.00     0.019 A 
HETATM    4  C   UNL     1      66.451   7.716   6.363  1.00  0.00     0.019 A 
HETATM    5  C   UNL     1      63.786   6.952   6.043  1.00  0.00     0.013 A 
HETATM    6  C   UNL     1      65.598   8.469   5.548  1.00  0.00     0.013 A 
ENDROOT
BRANCH   2   7
HETATM    7  C   UNL     1      63.359   8.915   4.568  1.00  0.00    -0.019 A 
HETATM    8  C   UNL     1      62.970   8.522   3.299  1.00  0.00     0.061 A 
HETATM    9  S   UNL     1      61.908   9.635   2.552  1.00  0.00    -0.113 SA
HETATM   10  C   UNL     1      61.939  10.657   3.920  1.00  0.00     0.050 A 
HETATM   11  C   UNL     1      62.742  10.159   4.921  1.00  0.00     0.020 A 
ENDBRANCH   2   7
BRANCH   1  12
HETATM   12  C   UNL     1      66.828   5.755   7.905  1.00  0.00     0.209 C 
HETATM   13  O   UNL     1      68.044   5.769   7.928  1.00  0.00    -0.644 OA
HETATM   14  O   UNL     1      66.122   4.953   8.721  1.00  0.00    -0.644 OA
ENDBRANCH   1  12
TORSDOF 2
ENDMDL
MODEL 4
REMARK VINA RESULT:      -4.8      2.815      4.269
REMARK  2 active torsions:
REMARK  status: ('A' for Active; 'I' for Inactive)
REMARK    1  A    between atoms: C_1  and  C_5 
REMARK    2  A    between atoms: C_2  and  C_4 
ROOT
HETATM    1  C   UNL     1      62.507   9.128   2.928  1.00  0.00     0.040 A 
HETATM    2  C   UNL     1      64.155   8.009   4.918  1.00  0.00    -0.025 A 
HETATM    3  C   UNL     1      63.101   7.879   2.729  1.00  0.00     0.019 A 
HETATM    4  C   UNL     1      62.728   9.815   4.127  1.00  0.00     0.019 A 
HETATM    5  C   UNL     1      63.909   7.320   3.721  1.00  0.00     0.013 A 
HETATM    6  C   UNL     1      63.546   9.256   5.115  1.00  0.00     0.013 A 
ENDROOT
BRANCH   2   7
HETATM    7  C   UNL     1      65.038   7.449   5.939  1.00  0.00    -0.019 A 
HETATM    8  C   UNL     1      64.704   6.313   6.655  1.00  0.00     0.061 A 
HETATM    9  S   UNL     1      65.910   5.851   7.776  1.00  0.00    -0.113 SA
HETATM   10  C   UNL     1      66.910   7.156   7.312  1.00  0.00     0.050 A 
HETATM   11  C   UNL     1      66.334   7.925   6.326  1.00  0.00     0.020 A 
ENDBRANCH   2   7
BRANCH   1  12
HETATM   12  C   UNL     1      61.655   9.678   1.847  1.00  0.00     0.209 C 
HETATM   13  O   UNL     1      60.934   9.032   1.112  1.00  0.00    -0.644 OA
HETATM   14  O   UNL     1      61.744  11.015   1.741  1.00  0.00    -0.644 OA
ENDBRANCH   1  12
TORSDOF 2
ENDMDL
MODEL 5
REMARK VINA RESULT:      -4.7      3.013      4.024
REMARK  2 active torsions:
REMARK  status: ('A' for Active; 'I' for Inactive)
REMARK    1  A    between atoms: C_1  and  C_5 
REMARK    2  A    between atoms: C_2  and  C_4 
ROOT
HETATM    1  C   UNL     1      65.210   8.052   5.007  1.00  0.00     0.040 A 
HETATM    2  C   UNL     1      62.975   7.951   3.298  1.00  0.00    -0.025 A 
HETATM    3  C   UNL     1      65.078   7.013   4.082  1.00  0.00     0.019 A 
HETATM    4  C   UNL     1      64.229   9.048   5.073  1.00  0.00     0.019 A 
HETATM    5  C   UNL     1      63.975   6.970   3.227  1.00  0.00     0.013 A 
HETATM    6  C   UNL     1      63.120   8.997   4.221  1.00  0.00     0.013 A 
ENDROOT
BRANCH   2   7
HETATM    7  C   UNL     1      61.794   7.885   2.439  1.00  0.00    -0.019 A 
HETATM    8  C   UNL     1      60.661   7.179   2.804  1.00  0.00     0.061 A 
HETATM    9  S   UNL     1      59.414   7.270   1.637  1.00  0.00    -0.113 SA
HETATM   10  C   UNL     1      60.364   8.268   0.628  1.00  0.00     0.050 A 
HETATM   11  C   UNL     1      61.603   8.523   1.170  1.00  0.00     0.020 A 
ENDBRANCH   2   7
BRANCH   1  12
HETATM   12  C   UNL     1      66.400   8.055   5.891  1.00  0.00     0.209 C 
HETATM   13  O   UNL     1      66.599   8.823   6.813  1.00  0.00    -0.644 OA
HETATM   14  O   UNL     1      67.284   7.091   5.580  1.00  0.00    -0.644 OA
ENDBRANCH   1  12
TORSDOF 2
ENDMDL
MODEL 6
REMARK VINA RESULT:      -4.6      3.467      4.500
REMARK  2 active torsions:
REMARK  status: ('A' for Active; 'I' for Inactive)
REMARK    1  A    between atoms: C_1  and  C_5 
REMARK    2  A    between atoms: C_2  and  C_4 
ROOT
HETATM    1  C   UNL     1      62.764   8.470   4.732  1.00  0.00     0.040 A 
HETATM    2  C   UNL     1      64.882   7.254   6.133  1.00  0.00    -0.025 A 
HETATM    3  C   UNL     1      62.523   7.358   5.545  1.00  0.00     0.019 A 
HETATM    4  C   UNL     1      64.062   8.980   4.626  1.00  0.00     0.019 A 
HETATM    5  C   UNL     1      63.573   6.763   6.248  1.00  0.00     0.013 A 
HETATM    6  C   UNL     1      65.113   8.376   5.325  1.00  0.00     0.013 A 
ENDROOT
BRANCH   2   7
HETATM    7  C   UNL     1      65.991   6.605   6.829  1.00  0.00    -0.019 A 
HETATM    8  C   UNL     1      66.096   6.614   8.209  1.00  0.00     0.061 A 
HETATM    9  S   UNL     1      67.471   5.772   8.780  1.00  0.00    -0.113 SA
HETATM   10  C   UNL     1      67.943   5.367   7.190  1.00  0.00     0.050 A 
HETATM   11  C   UNL     1      67.072   5.865   6.247  1.00  0.00     0.020 A 
ENDBRANCH   2   7
BRANCH   1  12
HETATM   12  C   UNL     1      61.618   9.068   4.008  1.00  0.00     0.209 C 
HETATM   13  O   UNL     1      60.748   8.452   3.420  1.00  0.00    -0.644 OA
HETATM   14  O   UNL     1      61.610  10.411   4.059  1.00  0.00    -0.644 OA
ENDBRANCH   1  12
TORSDOF 2
ENDMDL
MODEL 7
REMARK VINA RESULT:      -4.6      1.779      2.594
REMARK  2 active torsions:
REMARK  status: ('A' for Active; 'I' for Inactive)
REMARK    1  A    between atoms: C_1  and  C_5 
REMARK    2  A    between atoms: C_2  and  C_4 
ROOT
HETATM    1  C   UNL     1      62.439  10.015   3.720  1.00  0.00     0.040 A 
HETATM    2  C   UNL     1      63.249   7.375   4.268  1.00  0.00    -0.025 A 
HETATM    3  C   UNL     1      62.311   9.023   2.744  1.00  0.00     0.019 A 
HETATM    4  C   UNL     1      62.963   9.688   4.974  1.00  0.00     0.019 A 
HETATM    5  C   UNL     1      62.703   7.711   3.021  1.00  0.00     0.013 A 
HETATM    6  C   UNL     1      63.364   8.374   5.246  1.00  0.00     0.013 A 
ENDROOT
BRANCH   2   7
HETATM    7  C   UNL     1      63.705   6.015   4.547  1.00  0.00    -0.019 A 
HETATM    8  C   UNL     1      63.346   4.944   3.747  1.00  0.00     0.061 A 
HETATM    9  S   UNL     1      64.022   3.463   4.273  1.00  0.00    -0.113 SA
HETATM   10  C   UNL     1      64.820   4.232   5.572  1.00  0.00     0.050 A 
HETATM   11  C   UNL     1      64.574   5.586   5.603  1.00  0.00     0.020 A 
ENDBRANCH   2   7
BRANCH   1  12
HETATM   12  C   UNL     1      62.007  11.391   3.378  1.00  0.00     0.209 C 
HETATM   13  O   UNL     1      61.823  11.821   2.255  1.00  0.00    -0.644 OA
HETATM   14  O   UNL     1      61.820  12.164   4.462  1.00  0.00    -0.644 OA
ENDBRANCH   1  12
TORSDOF 2
ENDMDL
MODEL 8
REMARK VINA RESULT:      -4.6      2.311      3.323
REMARK  2 active torsions:
REMARK  status: ('A' for Active; 'I' for Inactive)
REMARK    1  A    between atoms: C_1  and  C_5 
REMARK    2  A    between atoms: C_2  and  C_4 
ROOT
HETATM    1  C   UNL     1      62.955   9.209   3.724  1.00  0.00     0.040 A 
HETATM    2  C   UNL     1      64.792   7.271   4.618  1.00  0.00    -0.025 A 
HETATM    3  C   UNL     1      63.677   9.414   4.904  1.00  0.00     0.019 A 
HETATM    4  C   UNL     1      63.158   8.038   2.985  1.00  0.00     0.019 A 
HETATM    5  C   UNL     1      64.596   8.458   5.340  1.00  0.00     0.013 A 
HETATM    6  C   UNL     1      64.073   7.077   3.430  1.00  0.00     0.013 A 
ENDROOT
BRANCH   2   7
HETATM    7  C   UNL     1      65.718   6.246   5.096  1.00  0.00    -0.019 A 
HETATM    8  C   UNL     1      65.628   5.715   6.370  1.00  0.00     0.061 A 
HETATM    9  S   UNL     1      66.813   4.520   6.680  1.00  0.00    -0.113 SA
HETATM   10  C   UNL     1      67.459   4.683   5.108  1.00  0.00     0.050 A 
HETATM   11  C   UNL     1      66.786   5.628   4.366  1.00  0.00     0.020 A 
ENDBRANCH   2   7
BRANCH   1  12
HETATM   12  C   UNL     1      61.993  10.254   3.302  1.00  0.00     0.209 C 
HETATM   13  O   UNL     1      61.625  11.197   3.976  1.00  0.00    -0.644 OA
HETATM   14  O   UNL     1      61.540  10.072   2.049  1.00  0.00    -0.644 OA
ENDBRANCH   1  12
TORSDOF 2
ENDMDL
MODEL 9
REMARK VINA RESULT:      -4.2      3.548      4.407
REMARK  2 active torsions:
REMARK  status: ('A' for Active; 'I' for Inactive)
REMARK    1  A    between atoms: C_1  and  C_5 
REMARK    2  A    between atoms: C_2  and  C_4 
ROOT
HETATM    1  C   UNL     1      63.984   7.812   5.291  1.00  0.00     0.040 A 
HETATM    2  C   UNL     1      61.504   7.686   3.964  1.00  0.00    -0.025 A 
HETATM    3  C   UNL     1      63.786   8.518   4.101  1.00  0.00     0.019 A 
HETATM    4  C   UNL     1      62.939   7.049   5.824  1.00  0.00     0.019 A 
HETATM    5  C   UNL     1      62.553   8.464   3.450  1.00  0.00     0.013 A 
HETATM    6  C   UNL     1      61.706   6.990   5.164  1.00  0.00     0.013 A 
ENDROOT
BRANCH   2   7
HETATM    7  C   UNL     1      60.227   7.588   3.260  1.00  0.00    -0.019 A 
HETATM    8  C   UNL     1      60.145   7.644   1.880  1.00  0.00     0.061 A 
HETATM    9  S   UNL     1      58.543   7.489   1.300  1.00  0.00    -0.113 SA
HETATM   10  C   UNL     1      57.932   7.329   2.887  1.00  0.00     0.050 A 
HETATM   11  C   UNL     1      58.928   7.395   3.835  1.00  0.00     0.020 A 
ENDBRANCH   2   7
BRANCH   1  12
HETATM   12  C   UNL     1      65.310   7.903   5.947  1.00  0.00     0.209 C 
HETATM   13  O   UNL     1      65.609   7.410   7.018  1.00  0.00    -0.644 OA
HETATM   14  O   UNL     1      66.202   8.603   5.225  1.00  0.00    -0.644 OA
ENDBRANCH   1  12
TORSDOF 2
ENDMDL
