MODEL 1
REMARK VINA RESULT:      -4.4      0.000      0.000
REMARK  3 active torsions:
REMARK  status: ('A' for Active; 'I' for Inactive)
REMARK    1  A    between atoms: C_3  and  N_6 
REMARK    2  A    between atoms: C_4  and  C_10 
REMARK    3  A    between atoms: O_9  and  C_10 
ROOT
HETATM    1  N   UNL     1      61.628  10.820   2.428  1.00  0.00    -0.352 N 
ATOM      2  HN  UNL     1      61.131  11.373   1.730  1.00  0.00     0.166 HD
HETATM    3  C   UNL     1      62.011   9.558   2.175  1.00  0.00     0.098 A 
HETATM    4  C   UNL     1      62.593  10.628   4.645  1.00  0.00    -0.019 A 
HETATM    5  C   UNL     1      61.927  11.328   3.647  1.00  0.00     0.099 A 
HETATM    6  C   UNL     1      62.693   8.781   3.100  1.00  0.00     0.048 A 
HETATM    7  C   UNL     1      62.982   9.320   4.351  1.00  0.00     0.014 A 
ENDROOT
BRANCH   3   8
HETATM    8  N   UNL     1      61.730   9.065   0.904  1.00  0.00    -0.385 N 
HETATM    9  H   UNL     1      62.434   9.051   0.215  1.00  0.00     0.157 HD
HETATM   10  H   UNL     1      60.828   8.731   0.693  1.00  0.00     0.157 HD
ENDBRANCH   3   8
BRANCH   4  11
HETATM   11  C   UNL     1      62.906  11.258   5.967  1.00  0.00     0.204 C 
BRANCH  11  12
HETATM   12  O   UNL     1      64.311  11.340   6.163  1.00  0.00    -0.396 OA
HETATM   13  H   UNL     1      64.525  12.162   6.631  1.00  0.00     0.209 HD
ENDBRANCH  11  12
ENDBRANCH   4  11
TORSDOF 3
ENDMDL
MODEL 2
REMARK VINA RESULT:      -4.3      2.799      3.854
REMARK  3 active torsions:
REMARK  status: ('A' for Active; 'I' for Inactive)
REMARK    1  A    between atoms: C_3  and  N_6 
REMARK    2  A    between atoms: C_4  and  C_10 
REMARK    3  A    between atoms: O_9  and  C_10 
ROOT
HETATM    1  N   UNL     1      62.230  11.690   4.455  1.00  0.00    -0.352 N 
ATOM      2  HN  UNL     1      62.003  12.652   4.704  1.00  0.00     0.166 HD
HETATM    3  C   UNL     1      62.904  10.892   5.299  1.00  0.00     0.098 A 
HETATM    4  C   UNL     1      62.149   9.868   2.856  1.00  0.00    -0.019 A 
HETATM    5  C   UNL     1      61.865  11.167   3.262  1.00  0.00     0.099 A 
HETATM    6  C   UNL     1      63.222   9.577   4.994  1.00  0.00     0.048 A 
HETATM    7  C   UNL     1      62.846   9.061   3.756  1.00  0.00     0.014 A 
ENDROOT
BRANCH   3   8
HETATM    8  N   UNL     1      63.236  11.434   6.537  1.00  0.00    -0.385 N 
HETATM    9  H   UNL     1      64.044  11.125   7.009  1.00  0.00     0.157 HD
HETATM   10  H   UNL     1      62.666  12.127   6.941  1.00  0.00     0.157 HD
ENDBRANCH   3   8
BRANCH   4  11
HETATM   11  C   UNL     1      61.700   9.348   1.526  1.00  0.00     0.204 C 
BRANCH  11  12
HETATM   12  O   UNL     1      60.309   9.052   1.546  1.00  0.00    -0.396 OA
HETATM   13  H   UNL     1      60.058   8.741   2.430  1.00  0.00     0.209 HD
ENDBRANCH  11  12
ENDBRANCH   4  11
TORSDOF 3
ENDMDL
MODEL 3
REMARK VINA RESULT:      -4.1      1.796      2.430
REMARK  3 active torsions:
REMARK  status: ('A' for Active; 'I' for Inactive)
REMARK    1  A    between atoms: C_3  and  N_6 
REMARK    2  A    between atoms: C_4  and  C_10 
REMARK    3  A    between atoms: O_9  and  C_10 
ROOT
HETATM    1  N   UNL     1      62.276  11.041   4.269  1.00  0.00    -0.352 N 
ATOM      2  HN  UNL     1      62.117  11.993   4.599  1.00  0.00     0.166 HD
HETATM    3  C   UNL     1      61.987  10.683   3.008  1.00  0.00     0.098 A 
HETATM    4  C   UNL     1      63.019   8.774   4.703  1.00  0.00    -0.019 A 
HETATM    5  C   UNL     1      62.786  10.089   5.085  1.00  0.00     0.099 A 
HETATM    6  C   UNL     1      62.197   9.399   2.526  1.00  0.00     0.048 A 
HETATM    7  C   UNL     1      62.713   8.432   3.385  1.00  0.00     0.014 A 
ENDROOT
BRANCH   3   8
HETATM    8  N   UNL     1      61.501  11.684   2.172  1.00  0.00    -0.385 N 
HETATM    9  H   UNL     1      62.108  12.139   1.544  1.00  0.00     0.157 HD
HETATM   10  H   UNL     1      60.551  11.938   2.208  1.00  0.00     0.157 HD
ENDBRANCH   3   8
BRANCH   4  11
HETATM   11  C   UNL     1      63.601   7.774   5.655  1.00  0.00     0.204 C 
BRANCH  11  12
HETATM   12  O   UNL     1      62.876   7.763   6.877  1.00  0.00    -0.396 OA
HETATM   13  H   UNL     1      62.798   6.852   7.199  1.00  0.00     0.209 HD
ENDBRANCH  11  12
ENDBRANCH   4  11
TORSDOF 3
ENDMDL
MODEL 4
REMARK VINA RESULT:      -4.0      3.002      4.141
REMARK  3 active torsions:
REMARK  status: ('A' for Active; 'I' for Inactive)
REMARK    1  A    between atoms: C_3  and  N_6 
REMARK    2  A    between atoms: C_4  and  C_10 
REMARK    3  A    between atoms: O_9  and  C_10 
ROOT
HETATM    1  N   UNL     1      63.911   9.526   5.417  1.00  0.00    -0.352 N 
ATOM      2  HN  UNL     1      64.589   9.295   6.142  1.00  0.00     0.166 HD
HETATM    3  C   UNL     1      63.229  10.683   5.441  1.00  0.00     0.098 A 
HETATM    4  C   UNL     1      62.745   8.926   3.376  1.00  0.00    -0.019 A 
HETATM    5  C   UNL     1      63.661   8.679   4.391  1.00  0.00     0.099 A 
HETATM    6  C   UNL     1      62.305  11.029   4.467  1.00  0.00     0.048 A 
HETATM    7  C   UNL     1      62.056  10.139   3.426  1.00  0.00     0.014 A 
ENDROOT
BRANCH   3   8
HETATM    8  N   UNL     1      63.527  11.559   6.481  1.00  0.00    -0.385 N 
HETATM    9  H   UNL     1      64.429  11.949   6.553  1.00  0.00     0.157 HD
HETATM   10  H   UNL     1      62.837  11.790   7.144  1.00  0.00     0.157 HD
ENDBRANCH   3   8
BRANCH   4  11
HETATM   11  C   UNL     1      62.530   7.950   2.261  1.00  0.00     0.204 C 
BRANCH  11  12
HETATM   12  O   UNL     1      63.479   6.894   2.329  1.00  0.00    -0.396 OA
HETATM   13  H   UNL     1      63.811   6.816   3.237  1.00  0.00     0.209 HD
ENDBRANCH  11  12
ENDBRANCH   4  11
TORSDOF 3
ENDMDL
MODEL 5
REMARK VINA RESULT:      -3.9      2.755      3.474
REMARK  3 active torsions:
REMARK  status: ('A' for Active; 'I' for Inactive)
REMARK    1  A    between atoms: C_3  and  N_6 
REMARK    2  A    between atoms: C_4  and  C_10 
REMARK    3  A    between atoms: O_9  and  C_10 
ROOT
HETATM    1  N   UNL     1      62.854   9.920   5.425  1.00  0.00    -0.352 N 
ATOM      2  HN  UNL     1      63.039  10.424   6.291  1.00  0.00     0.166 HD
HETATM    3  C   UNL     1      62.970   8.584   5.356  1.00  0.00     0.098 A 
HETATM    4  C   UNL     1      62.219   9.946   3.084  1.00  0.00    -0.019 A 
HETATM    5  C   UNL     1      62.479  10.570   4.298  1.00  0.00     0.099 A 
HETATM    6  C   UNL     1      62.719   7.868   4.196  1.00  0.00     0.048 A 
HETATM    7  C   UNL     1      62.345   8.557   3.045  1.00  0.00     0.014 A 
ENDROOT
BRANCH   3   8
HETATM    8  N   UNL     1      63.317   7.929   6.534  1.00  0.00    -0.385 N 
HETATM    9  H   UNL     1      63.037   8.297   7.404  1.00  0.00     0.157 HD
HETATM   10  H   UNL     1      63.842   7.097   6.499  1.00  0.00     0.157 HD
ENDBRANCH   3   8
BRANCH   4  11
HETATM   11  C   UNL     1      61.793  10.727   1.879  1.00  0.00     0.204 C 
BRANCH  11  12
HETATM   12  O   UNL     1      62.071  12.110   2.053  1.00  0.00    -0.396 OA
HETATM   13  H   UNL     1      61.741  12.400   2.918  1.00  0.00     0.209 HD
ENDBRANCH  11  12
ENDBRANCH   4  11
TORSDOF 3
ENDMDL
MODEL 6
REMARK VINA RESULT:      -3.6      1.870      2.338
REMARK  3 active torsions:
REMARK  status: ('A' for Active; 'I' for Inactive)
REMARK    1  A    between atoms: C_3  and  N_6 
REMARK    2  A    between atoms: C_4  and  C_10 
REMARK    3  A    between atoms: O_9  and  C_10 
ROOT
HETATM    1  N   UNL     1      61.359   7.681   2.986  1.00  0.00    -0.352 N 
ATOM      2  HN  UNL     1      61.129   6.725   3.255  1.00  0.00     0.166 HD
HETATM    3  C   UNL     1      61.314   8.075   1.703  1.00  0.00     0.098 A 
HETATM    4  C   UNL     1      62.054   9.920   3.609  1.00  0.00    -0.019 A 
HETATM    5  C   UNL     1      61.721   8.605   3.907  1.00  0.00     0.099 A 
HETATM    6  C   UNL     1      61.614   9.369   1.305  1.00  0.00     0.048 A 
HETATM    7  C   UNL     1      61.994  10.301   2.268  1.00  0.00     0.014 A 
ENDROOT
BRANCH   3   8
HETATM    8  N   UNL     1      60.902   7.124   0.774  1.00  0.00    -0.385 N 
HETATM    9  H   UNL     1      60.099   6.581   0.948  1.00  0.00     0.157 HD
HETATM   10  H   UNL     1      61.413   6.994  -0.058  1.00  0.00     0.157 HD
ENDBRANCH   3   8
BRANCH   4  11
HETATM   11  C   UNL     1      62.430  10.895   4.682  1.00  0.00     0.204 C 
BRANCH  11  12
HETATM   12  O   UNL     1      62.089  12.220   4.298  1.00  0.00    -0.396 OA
HETATM   13  H   UNL     1      61.148  12.377   4.476  1.00  0.00     0.209 HD
ENDBRANCH  11  12
ENDBRANCH   4  11
TORSDOF 3
ENDMDL
MODEL 7
REMARK VINA RESULT:      -3.6      2.882      3.800
REMARK  3 active torsions:
REMARK  status: ('A' for Active; 'I' for Inactive)
REMARK    1  A    between atoms: C_3  and  N_6 
REMARK    2  A    between atoms: C_4  and  C_10 
REMARK    3  A    between atoms: O_9  and  C_10 
ROOT
HETATM    1  N   UNL     1      63.478   7.773   4.027  1.00  0.00    -0.352 N 
ATOM      2  HN  UNL     1      63.880   6.840   3.945  1.00  0.00     0.166 HD
HETATM    3  C   UNL     1      63.484   8.437   5.194  1.00  0.00     0.098 A 
HETATM    4  C   UNL     1      62.346   9.659   3.005  1.00  0.00    -0.019 A 
HETATM    5  C   UNL     1      62.918   8.394   2.962  1.00  0.00     0.099 A 
HETATM    6  C   UNL     1      62.952   9.709   5.336  1.00  0.00     0.048 A 
HETATM    7  C   UNL     1      62.371  10.326   4.231  1.00  0.00     0.014 A 
ENDROOT
BRANCH   3   8
HETATM    8  N   UNL     1      64.100   7.800   6.268  1.00  0.00    -0.385 N 
HETATM    9  H   UNL     1      64.000   8.163   7.179  1.00  0.00     0.157 HD
HETATM   10  H   UNL     1      64.635   6.988   6.118  1.00  0.00     0.157 HD
ENDBRANCH   3   8
BRANCH   4  11
HETATM   11  C   UNL     1      61.756  10.293   1.783  1.00  0.00     0.204 C 
BRANCH  11  12
HETATM   12  O   UNL     1      61.475  11.667   2.016  1.00  0.00    -0.396 OA
HETATM   13  H   UNL     1      60.523  11.824   1.912  1.00  0.00     0.209 HD
ENDBRANCH  11  12
ENDBRANCH   4  11
TORSDOF 3
ENDMDL
MODEL 8
REMARK VINA RESULT:      -3.5      7.258      7.897
REMARK  3 active torsions:
REMARK  status: ('A' for Active; 'I' for Inactive)
REMARK    1  A    between atoms: C_3  and  N_6 
REMARK    2  A    between atoms: C_4  and  C_10 
REMARK    3  A    between atoms: O_9  and  C_10 
ROOT
HETATM    1  N   UNL     1      66.014   4.907   8.535  1.00  0.00    -0.352 N 
ATOM      2  HN  UNL     1      65.315   4.592   9.208  1.00  0.00     0.166 HD
HETATM    3  C   UNL     1      67.108   4.174   8.271  1.00  0.00     0.098 A 
HETATM    4  C   UNL     1      66.793   6.571   6.951  1.00  0.00    -0.019 A 
HETATM    5  C   UNL     1      65.877   6.079   7.873  1.00  0.00     0.099 A 
HETATM    6  C   UNL     1      68.073   4.570   7.357  1.00  0.00     0.048 A 
HETATM    7  C   UNL     1      67.917   5.785   6.694  1.00  0.00     0.014 A 
ENDROOT
BRANCH   3   8
HETATM    8  N   UNL     1      67.213   2.953   8.931  1.00  0.00    -0.385 N 
HETATM    9  H   UNL     1      67.485   2.146   8.435  1.00  0.00     0.157 HD
HETATM   10  H   UNL     1      67.016   2.895   9.894  1.00  0.00     0.157 HD
ENDBRANCH   3   8
BRANCH   4  11
HETATM   11  C   UNL     1      66.570   7.871   6.242  1.00  0.00     0.204 C 
BRANCH  11  12
HETATM   12  O   UNL     1      66.916   8.965   7.081  1.00  0.00    -0.396 OA
HETATM   13  H   UNL     1      67.807   9.276   6.856  1.00  0.00     0.209 HD
ENDBRANCH  11  12
ENDBRANCH   4  11
TORSDOF 3
ENDMDL
MODEL 9
REMARK VINA RESULT:      -3.4      2.674      3.164
REMARK  3 active torsions:
REMARK  status: ('A' for Active; 'I' for Inactive)
REMARK    1  A    between atoms: C_3  and  N_6 
REMARK    2  A    between atoms: C_4  and  C_10 
REMARK    3  A    between atoms: O_9  and  C_10 
ROOT
HETATM    1  N   UNL     1      61.340   7.533   4.095  1.00  0.00    -0.352 N 
ATOM      2  HN  UNL     1      60.711   6.781   3.814  1.00  0.00     0.166 HD
HETATM    3  C   UNL     1      62.304   7.333   5.007  1.00  0.00     0.098 A 
HETATM    4  C   UNL     1      62.051   9.844   3.906  1.00  0.00    -0.019 A 
HETATM    5  C   UNL     1      61.235   8.773   3.563  1.00  0.00     0.099 A 
HETATM    6  C   UNL     1      63.178   8.332   5.406  1.00  0.00     0.048 A 
HETATM    7  C   UNL     1      63.047   9.604   4.854  1.00  0.00     0.014 A 
ENDROOT
BRANCH   3   8
HETATM    8  N   UNL     1      62.423   6.042   5.514  1.00  0.00    -0.385 N 
HETATM    9  H   UNL     1      61.640   5.445   5.530  1.00  0.00     0.157 HD
HETATM   10  H   UNL     1      63.290   5.724   5.856  1.00  0.00     0.157 HD
ENDBRANCH   3   8
BRANCH   4  11
HETATM   11  C   UNL     1      61.889  11.188   3.266  1.00  0.00     0.204 C 
BRANCH  11  12
HETATM   12  O   UNL     1      62.056  12.225   4.224  1.00  0.00    -0.396 OA
HETATM   13  H   UNL     1      61.595  13.023   3.921  1.00  0.00     0.209 HD
ENDBRANCH  11  12
ENDBRANCH   4  11
TORSDOF 3
ENDMDL
