MODEL 1
REMARK VINA RESULT:      -4.6      0.000      0.000
REMARK  5 active torsions:
REMARK  status: ('A' for Active; 'I' for Inactive)
REMARK    1  A    between atoms: C_3  and  N_4 
REMARK    2  A    between atoms: N_4  and  C_11 
REMARK    3  A    between atoms: N_4  and  C_12 
REMARK    4  A    between atoms: C_6  and  C_10 
REMARK    5  A    between atoms: O_9  and  C_10 
ROOT
HETATM    1  N   UNL     1      61.735  10.038   2.916  1.00  0.00    -0.352 N 
ATOM      2  HN  UNL     1      61.127  10.361   2.162  1.00  0.00     0.166 HD
HETATM    3  C   UNL     1      62.300   8.813   2.862  1.00  0.00     0.102 A 
HETATM    4  C   UNL     1      63.139   8.385   3.891  1.00  0.00     0.049 A 
HETATM    5  C   UNL     1      62.828  10.489   5.032  1.00  0.00    -0.019 A 
HETATM    6  C   UNL     1      61.987  10.833   3.987  1.00  0.00     0.099 A 
HETATM    7  C   UNL     1      63.420   9.231   4.968  1.00  0.00     0.014 A 
ENDROOT
BRANCH   3   8
HETATM    8  N   UNL     1      62.057   8.015   1.754  1.00  0.00    -0.368 N 
BRANCH   8   9
HETATM    9  C   UNL     1      61.300   8.598   0.647  1.00  0.00     0.120 C 
HETATM   10  C   UNL     1      59.891   8.044   0.530  1.00  0.00     0.026 C 
ENDBRANCH   8   9
BRANCH   8  11
HETATM   11  C   UNL     1      62.304   6.577   1.771  1.00  0.00     0.120 C 
HETATM   12  C   UNL     1      63.275   6.142   0.681  1.00  0.00     0.026 C 
ENDBRANCH   8  11
ENDBRANCH   3   8
BRANCH   5  13
HETATM   13  C   UNL     1      63.126  11.443   6.148  1.00  0.00     0.204 C 
BRANCH  13  14
HETATM   14  O   UNL     1      64.517  11.472   6.430  1.00  0.00    -0.396 OA
HETATM   15  H   UNL     1      64.774  10.653   6.880  1.00  0.00     0.209 HD
ENDBRANCH  13  14
ENDBRANCH   5  13
TORSDOF 5
ENDMDL
MODEL 2
REMARK VINA RESULT:      -4.6      0.289      1.834
REMARK  5 active torsions:
REMARK  status: ('A' for Active; 'I' for Inactive)
REMARK    1  A    between atoms: C_3  and  N_4 
REMARK    2  A    between atoms: N_4  and  C_11 
REMARK    3  A    between atoms: N_4  and  C_12 
REMARK    4  A    between atoms: C_6  and  C_10 
REMARK    5  A    between atoms: O_9  and  C_10 
ROOT
HETATM    1  N   UNL     1      61.647  10.180   2.984  1.00  0.00    -0.352 N 
ATOM      2  HN  UNL     1      61.120  10.545   2.191  1.00  0.00     0.166 HD
HETATM    3  C   UNL     1      62.004   8.879   3.029  1.00  0.00     0.102 A 
HETATM    4  C   UNL     1      62.736   8.393   4.112  1.00  0.00     0.049 A 
HETATM    5  C   UNL     1      62.748  10.593   5.105  1.00  0.00    -0.019 A 
HETATM    6  C   UNL     1      62.000  10.996   4.010  1.00  0.00     0.099 A 
HETATM    7  C   UNL     1      63.126   9.255   5.142  1.00  0.00     0.014 A 
ENDROOT
BRANCH   3   8
HETATM    8  N   UNL     1      61.660   8.057   1.967  1.00  0.00    -0.368 N 
BRANCH   8   9
HETATM    9  C   UNL     1      62.167   6.685   1.975  1.00  0.00     0.120 C 
HETATM   10  C   UNL     1      63.089   6.382   0.808  1.00  0.00     0.026 C 
ENDBRANCH   8   9
BRANCH   8  11
HETATM   11  C   UNL     1      61.042   8.582   0.754  1.00  0.00     0.120 C 
HETATM   12  C   UNL     1      59.621   8.068   0.556  1.00  0.00     0.026 C 
ENDBRANCH   8  11
ENDBRANCH   3   8
BRANCH   5  13
HETATM   13  C   UNL     1      63.170  11.560   6.167  1.00  0.00     0.204 C 
BRANCH  13  14
HETATM   14  O   UNL     1      64.555  11.426   6.451  1.00  0.00    -0.396 OA
HETATM   15  H   UNL     1      65.006  12.264   6.266  1.00  0.00     0.209 HD
ENDBRANCH  13  14
ENDBRANCH   5  13
TORSDOF 5
ENDMDL
MODEL 3
REMARK VINA RESULT:      -4.5      3.475      5.296
REMARK  5 active torsions:
REMARK  status: ('A' for Active; 'I' for Inactive)
REMARK    1  A    between atoms: C_3  and  N_4 
REMARK    2  A    between atoms: N_4  and  C_11 
REMARK    3  A    between atoms: N_4  and  C_12 
REMARK    4  A    between atoms: C_6  and  C_10 
REMARK    5  A    between atoms: O_9  and  C_10 
ROOT
HETATM    1  N   UNL     1      64.184   9.248   5.703  1.00  0.00    -0.352 N 
ATOM      2  HN  UNL     1      64.464   9.727   6.558  1.00  0.00     0.166 HD
HETATM    3  C   UNL     1      64.745   8.067   5.363  1.00  0.00     0.102 A 
HETATM    4  C   UNL     1      64.346   7.414   4.197  1.00  0.00     0.049 A 
HETATM    5  C   UNL     1      62.774   9.185   3.731  1.00  0.00    -0.019 A 
HETATM    6  C   UNL     1      63.241   9.786   4.888  1.00  0.00     0.099 A 
HETATM    7  C   UNL     1      63.345   7.963   3.390  1.00  0.00     0.014 A 
ENDROOT
BRANCH   3   8
HETATM    8  N   UNL     1      65.691   7.511   6.211  1.00  0.00    -0.368 N 
BRANCH   8   9
HETATM    9  C   UNL     1      65.246   6.478   7.145  1.00  0.00     0.120 C 
HETATM   10  C   UNL     1      66.163   6.323   8.345  1.00  0.00     0.026 C 
ENDBRANCH   8   9
BRANCH   8  11
HETATM   11  C   UNL     1      67.020   8.093   6.370  1.00  0.00     0.120 C 
HETATM   12  C   UNL     1      67.918   7.826   5.168  1.00  0.00     0.026 C 
ENDBRANCH   8  11
ENDBRANCH   3   8
BRANCH   5  13
HETATM   13  C   UNL     1      61.676   9.795   2.916  1.00  0.00     0.204 C 
BRANCH  13  14
HETATM   14  O   UNL     1      61.322  11.074   3.421  1.00  0.00    -0.396 OA
HETATM   15  H   UNL     1      60.636  11.466   2.859  1.00  0.00     0.209 HD
ENDBRANCH  13  14
ENDBRANCH   5  13
TORSDOF 5
ENDMDL
MODEL 4
REMARK VINA RESULT:      -4.4      3.487      5.268
REMARK  5 active torsions:
REMARK  status: ('A' for Active; 'I' for Inactive)
REMARK    1  A    between atoms: C_3  and  N_4 
REMARK    2  A    between atoms: N_4  and  C_11 
REMARK    3  A    between atoms: N_4  and  C_12 
REMARK    4  A    between atoms: C_6  and  C_10 
REMARK    5  A    between atoms: O_9  and  C_10 
ROOT
HETATM    1  N   UNL     1      64.132   9.231   5.716  1.00  0.00    -0.352 N 
ATOM      2  HN  UNL     1      64.388   9.716   6.576  1.00  0.00     0.166 HD
HETATM    3  C   UNL     1      64.695   8.043   5.406  1.00  0.00     0.102 A 
HETATM    4  C   UNL     1      64.328   7.382   4.233  1.00  0.00     0.049 A 
HETATM    5  C   UNL     1      62.788   9.162   3.699  1.00  0.00    -0.019 A 
HETATM    6  C   UNL     1      63.221   9.770   4.865  1.00  0.00     0.099 A 
HETATM    7  C   UNL     1      63.359   7.932   3.388  1.00  0.00     0.014 A 
ENDROOT
BRANCH   3   8
HETATM    8  N   UNL     1      65.607   7.487   6.289  1.00  0.00    -0.368 N 
BRANCH   8   9
HETATM    9  C   UNL     1      66.933   8.098   6.373  1.00  0.00     0.120 C 
HETATM   10  C   UNL     1      67.828   7.745   5.198  1.00  0.00     0.026 C 
ENDBRANCH   8   9
BRANCH   8  11
HETATM   11  C   UNL     1      65.375   6.196   6.927  1.00  0.00     0.120 C 
HETATM   12  C   UNL     1      66.149   6.044   8.231  1.00  0.00     0.026 C 
ENDBRANCH   8  11
ENDBRANCH   3   8
BRANCH   5  13
HETATM   13  C   UNL     1      61.722   9.773   2.843  1.00  0.00     0.204 C 
BRANCH  13  14
HETATM   14  O   UNL     1      61.303  11.022   3.372  1.00  0.00    -0.396 OA
HETATM   15  H   UNL     1      62.056  11.631   3.400  1.00  0.00     0.209 HD
ENDBRANCH  13  14
ENDBRANCH   5  13
TORSDOF 5
ENDMDL
MODEL 5
REMARK VINA RESULT:      -4.1      3.501      4.712
REMARK  5 active torsions:
REMARK  status: ('A' for Active; 'I' for Inactive)
REMARK    1  A    between atoms: C_3  and  N_4 
REMARK    2  A    between atoms: N_4  and  C_11 
REMARK    3  A    between atoms: N_4  and  C_12 
REMARK    4  A    between atoms: C_6  and  C_10 
REMARK    5  A    between atoms: O_9  and  C_10 
ROOT
HETATM    1  N   UNL     1      64.027   7.289   6.545  1.00  0.00    -0.352 N 
ATOM      2  HN  UNL     1      63.088   7.149   6.917  1.00  0.00     0.166 HD
HETATM    3  C   UNL     1      64.228   8.093   5.479  1.00  0.00     0.102 A 
HETATM    4  C   UNL     1      65.518   8.288   4.985  1.00  0.00     0.049 A 
HETATM    5  C   UNL     1      66.404   6.835   6.697  1.00  0.00    -0.019 A 
HETATM    6  C   UNL     1      65.093   6.670   7.113  1.00  0.00     0.099 A 
HETATM    7  C   UNL     1      66.610   7.674   5.607  1.00  0.00     0.014 A 
ENDROOT
BRANCH   3   8
HETATM    8  N   UNL     1      63.138   8.740   4.917  1.00  0.00    -0.368 N 
BRANCH   8   9
HETATM    9  C   UNL     1      62.967  10.163   5.206  1.00  0.00     0.120 C 
HETATM   10  C   UNL     1      62.161  10.894   4.147  1.00  0.00     0.026 C 
ENDBRANCH   8   9
BRANCH   8  11
HETATM   11  C   UNL     1      62.052   8.005   4.277  1.00  0.00     0.120 C 
HETATM   12  C   UNL     1      62.493   7.321   2.988  1.00  0.00     0.026 C 
ENDBRANCH   8  11
ENDBRANCH   3   8
BRANCH   5  13
HETATM   13  C   UNL     1      67.545   6.184   7.416  1.00  0.00     0.204 C 
BRANCH  13  14
HETATM   14  O   UNL     1      67.752   6.787   8.685  1.00  0.00    -0.396 OA
HETATM   15  H   UNL     1      68.075   7.693   8.565  1.00  0.00     0.209 HD
ENDBRANCH  13  14
ENDBRANCH   5  13
TORSDOF 5
ENDMDL
MODEL 6
REMARK VINA RESULT:      -4.0      1.533      2.054
REMARK  5 active torsions:
REMARK  status: ('A' for Active; 'I' for Inactive)
REMARK    1  A    between atoms: C_3  and  N_4 
REMARK    2  A    between atoms: N_4  and  C_11 
REMARK    3  A    between atoms: N_4  and  C_12 
REMARK    4  A    between atoms: C_6  and  C_10 
REMARK    5  A    between atoms: O_9  and  C_10 
ROOT
HETATM    1  N   UNL     1      62.494   8.640   3.193  1.00  0.00    -0.352 N 
ATOM      2  HN  UNL     1      61.847   8.501   2.417  1.00  0.00     0.166 HD
HETATM    3  C   UNL     1      63.487   7.754   3.425  1.00  0.00     0.102 A 
HETATM    4  C   UNL     1      64.374   7.961   4.482  1.00  0.00     0.049 A 
HETATM    5  C   UNL     1      63.226  10.004   5.060  1.00  0.00    -0.019 A 
HETATM    6  C   UNL     1      62.370   9.718   4.009  1.00  0.00     0.099 A 
HETATM    7  C   UNL     1      64.256   9.097   5.288  1.00  0.00     0.014 A 
ENDROOT
BRANCH   3   8
HETATM    8  N   UNL     1      63.622   6.668   2.574  1.00  0.00    -0.368 N 
BRANCH   8   9
HETATM    9  C   UNL     1      62.565   6.436   1.591  1.00  0.00     0.120 C 
HETATM   10  C   UNL     1      63.097   6.135   0.201  1.00  0.00     0.026 C 
ENDBRANCH   8   9
BRANCH   8  11
HETATM   11  C   UNL     1      64.629   5.635   2.797  1.00  0.00     0.120 C 
HETATM   12  C   UNL     1      64.034   4.361   3.383  1.00  0.00     0.026 C 
ENDBRANCH   8  11
ENDBRANCH   3   8
BRANCH   5  13
HETATM   13  C   UNL     1      63.081  11.251   5.875  1.00  0.00     0.204 C 
BRANCH  13  14
HETATM   14  O   UNL     1      64.314  11.604   6.484  1.00  0.00    -0.396 OA
HETATM   15  H   UNL     1      64.455  11.054   7.270  1.00  0.00     0.209 HD
ENDBRANCH  13  14
ENDBRANCH   5  13
TORSDOF 5
ENDMDL
MODEL 7
REMARK VINA RESULT:      -3.9      3.796      5.186
REMARK  5 active torsions:
REMARK  status: ('A' for Active; 'I' for Inactive)
REMARK    1  A    between atoms: C_3  and  N_4 
REMARK    2  A    between atoms: N_4  and  C_11 
REMARK    3  A    between atoms: N_4  and  C_12 
REMARK    4  A    between atoms: C_6  and  C_10 
REMARK    5  A    between atoms: O_9  and  C_10 
ROOT
HETATM    1  N   UNL     1      64.393   7.187   6.805  1.00  0.00    -0.352 N 
ATOM      2  HN  UNL     1      63.486   7.037   7.249  1.00  0.00     0.166 HD
HETATM    3  C   UNL     1      64.509   8.019   5.748  1.00  0.00     0.102 A 
HETATM    4  C   UNL     1      65.755   8.227   5.158  1.00  0.00     0.049 A 
HETATM    5  C   UNL     1      66.773   6.730   6.754  1.00  0.00    -0.019 A 
HETATM    6  C   UNL     1      65.500   6.554   7.270  1.00  0.00     0.099 A 
HETATM    7  C   UNL     1      66.893   7.598   5.673  1.00  0.00     0.014 A 
ENDROOT
BRANCH   3   8
HETATM    8  N   UNL     1      63.378   8.680   5.293  1.00  0.00    -0.368 N 
BRANCH   8   9
HETATM    9  C   UNL     1      62.340   7.884   4.640  1.00  0.00     0.120 C 
HETATM   10  C   UNL     1      62.838   7.149   3.408  1.00  0.00     0.026 C 
ENDBRANCH   8   9
BRANCH   8  11
HETATM   11  C   UNL     1      63.314  10.136   5.219  1.00  0.00     0.120 C 
HETATM   12  C   UNL     1      62.216  10.623   4.282  1.00  0.00     0.026 C 
ENDBRANCH   8  11
ENDBRANCH   3   8
BRANCH   5  13
HETATM   13  C   UNL     1      67.967   6.061   7.361  1.00  0.00     0.204 C 
BRANCH  13  14
HETATM   14  O   UNL     1      68.071   6.369   8.743  1.00  0.00    -0.396 OA
HETATM   15  H   UNL     1      68.684   5.749   9.168  1.00  0.00     0.209 HD
ENDBRANCH  13  14
ENDBRANCH   5  13
TORSDOF 5
ENDMDL
MODEL 8
REMARK VINA RESULT:      -3.9      2.650      3.831
REMARK  5 active torsions:
REMARK  status: ('A' for Active; 'I' for Inactive)
REMARK    1  A    between atoms: C_3  and  N_4 
REMARK    2  A    between atoms: N_4  and  C_11 
REMARK    3  A    between atoms: N_4  and  C_12 
REMARK    4  A    between atoms: C_6  and  C_10 
REMARK    5  A    between atoms: O_9  and  C_10 
ROOT
HETATM    1  N   UNL     1      63.824   7.203   3.101  1.00  0.00    -0.352 N 
ATOM      2  HN  UNL     1      63.361   6.772   2.302  1.00  0.00     0.166 HD
HETATM    3  C   UNL     1      63.382   8.379   3.597  1.00  0.00     0.102 A 
HETATM    4  C   UNL     1      64.015   8.954   4.699  1.00  0.00     0.049 A 
HETATM    5  C   UNL     1      65.557   7.100   4.794  1.00  0.00    -0.019 A 
HETATM    6  C   UNL     1      64.894   6.605   3.683  1.00  0.00     0.099 A 
HETATM    7  C   UNL     1      65.091   8.305   5.311  1.00  0.00     0.014 A 
ENDROOT
BRANCH   3   8
HETATM    8  N   UNL     1      62.274   8.974   3.012  1.00  0.00    -0.368 N 
BRANCH   8   9
HETATM    9  C   UNL     1      61.770  10.210   3.609  1.00  0.00     0.120 C 
HETATM   10  C   UNL     1      61.835  11.398   2.665  1.00  0.00     0.026 C 
ENDBRANCH   8   9
BRANCH   8  11
HETATM   11  C   UNL     1      61.469   8.285   2.009  1.00  0.00     0.120 C 
HETATM   12  C   UNL     1      61.936   8.578   0.589  1.00  0.00     0.026 C 
ENDBRANCH   8  11
ENDBRANCH   3   8
BRANCH   5  13
HETATM   13  C   UNL     1      66.684   6.352   5.436  1.00  0.00     0.204 C 
BRANCH  13  14
HETATM   14  O   UNL     1      67.799   6.268   4.561  1.00  0.00    -0.396 OA
HETATM   15  H   UNL     1      67.517   6.479   3.657  1.00  0.00     0.209 HD
ENDBRANCH  13  14
ENDBRANCH   5  13
TORSDOF 5
ENDMDL
MODEL 9
REMARK VINA RESULT:      -3.9      2.096      3.251
REMARK  5 active torsions:
REMARK  status: ('A' for Active; 'I' for Inactive)
REMARK    1  A    between atoms: C_3  and  N_4 
REMARK    2  A    between atoms: N_4  and  C_11 
REMARK    3  A    between atoms: N_4  and  C_12 
REMARK    4  A    between atoms: C_6  and  C_10 
REMARK    5  A    between atoms: O_9  and  C_10 
ROOT
HETATM    1  N   UNL     1      63.520   7.454   3.052  1.00  0.00    -0.352 N 
ATOM      2  HN  UNL     1      63.315   6.869   2.242  1.00  0.00     0.166 HD
HETATM    3  C   UNL     1      62.848   8.608   3.251  1.00  0.00     0.102 A 
HETATM    4  C   UNL     1      63.127   9.395   4.369  1.00  0.00     0.049 A 
HETATM    5  C   UNL     1      64.787   7.798   5.090  1.00  0.00    -0.019 A 
HETATM    6  C   UNL     1      64.473   7.085   3.946  1.00  0.00     0.099 A 
HETATM    7  C   UNL     1      64.084   8.980   5.300  1.00  0.00     0.014 A 
ENDROOT
BRANCH   3   8
HETATM    8  N   UNL     1      61.860   8.968   2.347  1.00  0.00    -0.368 N 
BRANCH   8   9
HETATM    9  C   UNL     1      60.714   8.073   2.197  1.00  0.00     0.120 C 
HETATM   10  C   UNL     1      60.190   8.008   0.773  1.00  0.00     0.026 C 
ENDBRANCH   8   9
BRANCH   8  11
HETATM   11  C   UNL     1      62.052  10.050   1.386  1.00  0.00     0.120 C 
HETATM   12  C   UNL     1      61.781  11.421   1.994  1.00  0.00     0.026 C 
ENDBRANCH   8  11
ENDBRANCH   3   8
BRANCH   5  13
HETATM   13  C   UNL     1      65.796   7.297   6.077  1.00  0.00     0.204 C 
BRANCH  13  14
HETATM   14  O   UNL     1      65.188   7.037   7.334  1.00  0.00    -0.396 OA
HETATM   15  H   UNL     1      64.281   7.380   7.332  1.00  0.00     0.209 HD
ENDBRANCH  13  14
ENDBRANCH   5  13
TORSDOF 5
ENDMDL
