MODEL 1
REMARK VINA RESULT:      -6.0      0.000      0.000
REMARK  3 active torsions:
REMARK  status: ('A' for Active; 'I' for Inactive)
REMARK    1  A    between atoms: C_1  and  C_8 
REMARK    2  A    between atoms: C_4  and  C_10 
REMARK    3  A    between atoms: C_6  and  C_9 
ROOT
HETATM    1  C   UNK     1      62.507   8.692   2.652  1.00  0.00     0.048 A 
HETATM    2  C   UNK     1      64.406   7.867   4.588  1.00  0.00    -0.002 A 
HETATM    3  C   UNK     1      63.218   7.496   2.489  1.00  0.00     0.017 A 
HETATM    4  C   UNK     1      62.753   9.472   3.789  1.00  0.00     0.017 A 
HETATM    5  C   UNK     1      64.161   7.095   3.442  1.00  0.00     0.015 A 
HETATM    6  C   UNK     1      63.694   9.066   4.744  1.00  0.00     0.015 A 
ENDROOT
BRANCH   2   7
HETATM    7  C   UNK     1      65.413   7.411   5.562  1.00  0.00     0.085 A 
HETATM    8  N   UNK     1      65.129   6.986   6.778  1.00  0.00    -0.344 N 
HETATM    9  C   UNK     1      66.291   6.627   7.463  1.00  0.00     0.117 A 
ATOM     10  HN  UNK     1      64.188   6.927   7.165  1.00  0.00     0.167 HD
HETATM   11  C   UNK     1      67.454   6.831   6.742  1.00  0.00     0.088 A 
HETATM   12  S   UNK     1      67.096   7.454   5.192  1.00  0.00    -0.081 SA
BRANCH   9  13
HETATM   13  C   UNK     1      66.279   6.086   8.818  1.00  0.00     0.227 C 
HETATM   14  O   UNK     1      66.378   6.748   9.844  1.00  0.00    -0.643 OA
HETATM   15  O   UNK     1      66.153   4.741   8.893  1.00  0.00    -0.643 OA
ENDBRANCH   9  13
ENDBRANCH   2   7
BRANCH   1  16
HETATM   16  C   UNK     1      61.498   9.152   1.627  1.00  0.00     0.417 C 
HETATM   17  F   UNK     1      60.288   8.536   1.735  1.00  0.00    -0.166 F 
HETATM   18  F   UNK     1      61.246  10.488   1.709  1.00  0.00    -0.166 F 
HETATM   19  F   UNK     1      61.918   8.929   0.351  1.00  0.00    -0.166 F 
ENDBRANCH   1  16
TORSDOF 3
ENDMDL
MODEL 2
REMARK VINA RESULT:      -5.8      5.615      7.264
REMARK  3 active torsions:
REMARK  status: ('A' for Active; 'I' for Inactive)
REMARK    1  A    between atoms: C_1  and  C_8 
REMARK    2  A    between atoms: C_4  and  C_10 
REMARK    3  A    between atoms: C_6  and  C_9 
ROOT
HETATM    1  C   UNK     1      65.922   6.533   7.394  1.00  0.00     0.048 A 
HETATM    2  C   UNK     1      64.350   7.750   5.373  1.00  0.00    -0.002 A 
HETATM    3  C   UNK     1      66.405   7.641   6.685  1.00  0.00     0.017 A 
HETATM    4  C   UNK     1      64.648   6.039   7.085  1.00  0.00     0.017 A 
HETATM    5  C   UNK     1      65.630   8.235   5.682  1.00  0.00     0.015 A 
HETATM    6  C   UNK     1      63.873   6.638   6.085  1.00  0.00     0.015 A 
ENDROOT
BRANCH   2   7
HETATM    7  C   UNK     1      63.571   8.401   4.306  1.00  0.00     0.085 A 
HETATM    8  N   UNK     1      63.138   9.646   4.357  1.00  0.00    -0.344 N 
HETATM    9  C   UNK     1      62.428   9.974   3.201  1.00  0.00     0.117 A 
ATOM     10  HN  UNK     1      63.300  10.283   5.137  1.00  0.00     0.167 HD
HETATM   11  C   UNK     1      62.308   8.931   2.300  1.00  0.00     0.088 A 
HETATM   12  S   UNK     1      63.104   7.538   2.889  1.00  0.00    -0.081 SA
BRANCH   9  13
HETATM   13  C   UNK     1      61.863  11.298   2.964  1.00  0.00     0.227 C 
HETATM   14  O   UNK     1      61.514  11.733   1.874  1.00  0.00    -0.643 OA
HETATM   15  O   UNK     1      61.741  12.071   4.068  1.00  0.00    -0.643 OA
ENDBRANCH   9  13
ENDBRANCH   2   7
BRANCH   1  16
HETATM   16  C   UNK     1      66.749   5.866   8.467  1.00  0.00     0.417 C 
HETATM   17  F   UNK     1      66.396   6.226   9.733  1.00  0.00    -0.166 F 
HETATM   18  F   UNK     1      66.657   4.509   8.425  1.00  0.00    -0.166 F 
HETATM   19  F   UNK     1      68.075   6.154   8.354  1.00  0.00    -0.166 F 
ENDBRANCH   1  16
TORSDOF 3
ENDMDL
MODEL 3
REMARK VINA RESULT:      -5.4      2.238      3.070
REMARK  3 active torsions:
REMARK  status: ('A' for Active; 'I' for Inactive)
REMARK    1  A    between atoms: C_1  and  C_8 
REMARK    2  A    between atoms: C_4  and  C_10 
REMARK    3  A    between atoms: C_6  and  C_9 
ROOT
HETATM    1  C   UNK     1      63.313   8.529   4.869  1.00  0.00     0.048 A 
HETATM    2  C   UNK     1      65.014   6.921   6.467  1.00  0.00    -0.002 A 
HETATM    3  C   UNK     1      64.698   8.744   4.875  1.00  0.00     0.017 A 
HETATM    4  C   UNK     1      62.786   7.506   5.667  1.00  0.00     0.017 A 
HETATM    5  C   UNK     1      65.534   7.953   5.672  1.00  0.00     0.015 A 
HETATM    6  C   UNK     1      63.626   6.714   6.459  1.00  0.00     0.015 A 
ENDROOT
BRANCH   2   7
HETATM    7  C   UNK     1      65.931   6.118   7.295  1.00  0.00     0.085 A 
HETATM    8  N   UNK     1      66.093   4.815   7.172  1.00  0.00    -0.344 N 
HETATM    9  C   UNK     1      67.023   4.339   8.099  1.00  0.00     0.117 A 
ATOM     10  HN  UNK     1      65.605   4.233   6.492  1.00  0.00     0.167 HD
HETATM   11  C   UNK     1      67.523   5.314   8.943  1.00  0.00     0.088 A 
HETATM   12  S   UNK     1      66.846   6.837   8.566  1.00  0.00    -0.081 SA
BRANCH   9  13
HETATM   13  C   UNK     1      67.430   2.940   8.169  1.00  0.00     0.227 C 
HETATM   14  O   UNK     1      67.952   2.310   7.258  1.00  0.00    -0.643 OA
HETATM   15  O   UNK     1      67.184   2.334   9.354  1.00  0.00    -0.643 OA
ENDBRANCH   9  13
ENDBRANCH   2   7
BRANCH   1  16
HETATM   16  C   UNK     1      62.390   9.382   4.031  1.00  0.00     0.417 C 
HETATM   17  F   UNK     1      62.774   9.486   2.728  1.00  0.00    -0.166 F 
HETATM   18  F   UNK     1      61.117   8.902   4.008  1.00  0.00    -0.166 F 
HETATM   19  F   UNK     1      62.300  10.658   4.497  1.00  0.00    -0.166 F 
ENDBRANCH   1  16
TORSDOF 3
ENDMDL
MODEL 4
REMARK VINA RESULT:      -5.2      5.707      7.336
REMARK  3 active torsions:
REMARK  status: ('A' for Active; 'I' for Inactive)
REMARK    1  A    between atoms: C_1  and  C_8 
REMARK    2  A    between atoms: C_4  and  C_10 
REMARK    3  A    between atoms: C_6  and  C_9 
ROOT
HETATM    1  C   UNK     1      66.282   6.463   7.122  1.00  0.00     0.048 A 
HETATM    2  C   UNK     1      64.475   7.815   5.406  1.00  0.00    -0.002 A 
HETATM    3  C   UNK     1      66.606   7.719   6.593  1.00  0.00     0.017 A 
HETATM    4  C   UNK     1      65.049   5.889   6.787  1.00  0.00     0.017 A 
HETATM    5  C   UNK     1      65.716   8.381   5.740  1.00  0.00     0.015 A 
HETATM    6  C   UNK     1      64.158   6.556   5.937  1.00  0.00     0.015 A 
ENDROOT
BRANCH   2   7
HETATM    7  C   UNK     1      63.572   8.544   4.499  1.00  0.00     0.085 A 
HETATM    8  N   UNK     1      63.279   8.156   3.274  1.00  0.00    -0.344 N 
HETATM    9  C   UNK     1      62.402   9.054   2.663  1.00  0.00     0.117 A 
ATOM     10  HN  UNK     1      63.643   7.312   2.832  1.00  0.00     0.167 HD
HETATM   11  C   UNK     1      62.077  10.145   3.450  1.00  0.00     0.088 A 
HETATM   12  S   UNK     1      62.853  10.040   4.968  1.00  0.00    -0.081 SA
BRANCH   9  13
HETATM   13  C   UNK     1      61.876   8.859   1.316  1.00  0.00     0.227 C 
HETATM   14  O   UNK     1      62.553   8.754   0.301  1.00  0.00    -0.643 OA
HETATM   15  O   UNK     1      60.526   8.803   1.234  1.00  0.00    -0.643 OA
ENDBRANCH   9  13
ENDBRANCH   2   7
BRANCH   1  16
HETATM   16  C   UNK     1      67.235   5.724   8.030  1.00  0.00     0.417 C 
HETATM   17  F   UNK     1      68.072   4.876   7.371  1.00  0.00    -0.166 F 
HETATM   18  F   UNK     1      68.037   6.565   8.739  1.00  0.00    -0.166 F 
HETATM   19  F   UNK     1      66.585   4.963   8.954  1.00  0.00    -0.166 F 
ENDBRANCH   1  16
TORSDOF 3
ENDMDL
MODEL 5
REMARK VINA RESULT:      -4.9      1.959      2.533
REMARK  3 active torsions:
REMARK  status: ('A' for Active; 'I' for Inactive)
REMARK    1  A    between atoms: C_1  and  C_8 
REMARK    2  A    between atoms: C_4  and  C_10 
REMARK    3  A    between atoms: C_6  and  C_9 
ROOT
HETATM    1  C   UNK     1      60.592   7.387   3.858  1.00  0.00     0.048 A 
HETATM    2  C   UNK     1      63.075   7.358   5.227  1.00  0.00    -0.002 A 
HETATM    3  C   UNK     1      60.808   6.505   4.926  1.00  0.00     0.017 A 
HETATM    4  C   UNK     1      61.628   8.252   3.480  1.00  0.00     0.017 A 
HETATM    5  C   UNK     1      62.037   6.488   5.595  1.00  0.00     0.015 A 
HETATM    6  C   UNK     1      62.854   8.235   4.155  1.00  0.00     0.015 A 
ENDROOT
BRANCH   2   7
HETATM    7  C   UNK     1      64.354   7.300   5.955  1.00  0.00     0.085 A 
HETATM    8  N   UNK     1      64.555   6.589   7.047  1.00  0.00    -0.344 N 
HETATM    9  C   UNK     1      65.865   6.742   7.506  1.00  0.00     0.117 A 
ATOM     10  HN  UNK     1      63.849   6.006   7.496  1.00  0.00     0.167 HD
HETATM   11  C   UNK     1      66.627   7.615   6.751  1.00  0.00     0.088 A 
HETATM   12  S   UNK     1      65.712   8.234   5.448  1.00  0.00    -0.081 SA
BRANCH   9  13
HETATM   13  C   UNK     1      66.383   6.042   8.678  1.00  0.00     0.227 C 
HETATM   14  O   UNK     1      66.406   4.826   8.821  1.00  0.00    -0.643 OA
HETATM   15  O   UNK     1      66.858   6.846   9.657  1.00  0.00    -0.643 OA
ENDBRANCH   9  13
ENDBRANCH   2   7
BRANCH   1  16
HETATM   16  C   UNK     1      59.281   7.410   3.111  1.00  0.00     0.417 C 
HETATM   17  F   UNK     1      59.348   8.043   1.907  1.00  0.00    -0.166 F 
HETATM   18  F   UNK     1      58.808   6.160   2.851  1.00  0.00    -0.166 F 
HETATM   19  F   UNK     1      58.298   8.043   3.810  1.00  0.00    -0.166 F 
ENDBRANCH   1  16
TORSDOF 3
ENDMDL
MODEL 6
REMARK VINA RESULT:      -4.7     12.593     13.881
REMARK  3 active torsions:
REMARK  status: ('A' for Active; 'I' for Inactive)
REMARK    1  A    between atoms: C_1  and  C_8 
REMARK    2  A    between atoms: C_4  and  C_10 
REMARK    3  A    between atoms: C_6  and  C_9 
ROOT
HETATM    1  C   UNK     1      59.898   0.232  12.474  1.00  0.00     0.048 A 
HETATM    2  C   UNK     1      57.381   1.350  13.144  1.00  0.00    -0.002 A 
HETATM    3  C   UNK     1      58.722  -0.253  11.885  1.00  0.00     0.017 A 
HETATM    4  C   UNK     1      59.805   1.279  13.401  1.00  0.00     0.017 A 
HETATM    5  C   UNK     1      57.480   0.296  12.223  1.00  0.00     0.015 A 
HETATM    6  C   UNK     1      58.561   1.829  13.733  1.00  0.00     0.015 A 
ENDROOT
BRANCH   2   7
HETATM    7  C   UNK     1      56.052   1.893  13.476  1.00  0.00     0.085 A 
HETATM    8  N   UNK     1      55.689   3.144  13.273  1.00  0.00    -0.344 N 
HETATM    9  C   UNK     1      54.375   3.357  13.693  1.00  0.00     0.117 A 
ATOM     10  HN  UNK     1      56.288   3.860  12.863  1.00  0.00     0.167 HD
HETATM   11  C   UNK     1      53.777   2.241  14.253  1.00  0.00     0.088 A 
HETATM   12  S   UNK     1      54.853   0.914  14.235  1.00  0.00    -0.081 SA
BRANCH   9  13
HETATM   13  C   UNK     1      53.694   4.640  13.555  1.00  0.00     0.227 C 
HETATM   14  O   UNK     1      52.846   4.902  12.712  1.00  0.00    -0.643 OA
HETATM   15  O   UNK     1      54.069   5.583  14.450  1.00  0.00    -0.643 OA
ENDBRANCH   9  13
ENDBRANCH   2   7
BRANCH   1  16
HETATM   16  C   UNK     1      61.246  -0.357  12.136  1.00  0.00     0.417 C 
HETATM   17  F   UNK     1      61.719   0.022  10.917  1.00  0.00    -0.166 F 
HETATM   18  F   UNK     1      62.206  -0.007  13.036  1.00  0.00    -0.166 F 
HETATM   19  F   UNK     1      61.228  -1.719  12.122  1.00  0.00    -0.166 F 
ENDBRANCH   1  16
TORSDOF 3
ENDMDL
MODEL 7
REMARK VINA RESULT:      -4.7      5.623      7.340
REMARK  3 active torsions:
REMARK  status: ('A' for Active; 'I' for Inactive)
REMARK    1  A    between atoms: C_1  and  C_8 
REMARK    2  A    between atoms: C_4  and  C_10 
REMARK    3  A    between atoms: C_6  and  C_9 
ROOT
HETATM    1  C   UNK     1      64.972   7.351   5.749  1.00  0.00     0.048 A 
HETATM    2  C   UNK     1      62.955   7.608   3.773  1.00  0.00    -0.002 A 
HETATM    3  C   UNK     1      64.671   8.603   5.196  1.00  0.00     0.017 A 
HETATM    4  C   UNK     1      64.257   6.230   5.306  1.00  0.00     0.017 A 
HETATM    5  C   UNK     1      63.680   8.726   4.215  1.00  0.00     0.015 A 
HETATM    6  C   UNK     1      63.263   6.357   4.328  1.00  0.00     0.015 A 
ENDROOT
BRANCH   2   7
HETATM    7  C   UNK     1      61.925   7.783   2.734  1.00  0.00     0.085 A 
HETATM    8  N   UNK     1      60.835   7.047   2.639  1.00  0.00    -0.344 N 
HETATM    9  C   UNK     1      60.058   7.448   1.551  1.00  0.00     0.117 A 
ATOM     10  HN  UNK     1      60.592   6.288   3.274  1.00  0.00     0.167 HD
HETATM   11  C   UNK     1      60.614   8.477   0.812  1.00  0.00     0.088 A 
HETATM   12  S   UNK     1      62.105   8.962   1.490  1.00  0.00    -0.081 SA
BRANCH   9  13
HETATM   13  C   UNK     1      58.774   6.836   1.223  1.00  0.00     0.227 C 
HETATM   14  O   UNK     1      58.601   5.651   0.970  1.00  0.00    -0.643 OA
HETATM   15  O   UNK     1      57.724   7.690   1.204  1.00  0.00    -0.643 OA
ENDBRANCH   9  13
ENDBRANCH   2   7
BRANCH   1  16
HETATM   16  C   UNK     1      66.048   7.193   6.795  1.00  0.00     0.417 C 
HETATM   17  F   UNK     1      66.990   6.263   6.475  1.00  0.00    -0.166 F 
HETATM   18  F   UNK     1      66.728   8.351   7.021  1.00  0.00    -0.166 F 
HETATM   19  F   UNK     1      65.545   6.815   8.003  1.00  0.00    -0.166 F 
ENDBRANCH   1  16
TORSDOF 3
ENDMDL
MODEL 8
REMARK VINA RESULT:      -4.6      6.000      7.233
REMARK  3 active torsions:
REMARK  status: ('A' for Active; 'I' for Inactive)
REMARK    1  A    between atoms: C_1  and  C_8 
REMARK    2  A    between atoms: C_4  and  C_10 
REMARK    3  A    between atoms: C_6  and  C_9 
ROOT
HETATM    1  C   UNK     1      59.188   5.118   6.396  1.00  0.00     0.048 A 
HETATM    2  C   UNK     1      60.528   6.969   4.718  1.00  0.00    -0.002 A 
HETATM    3  C   UNK     1      58.532   5.689   5.297  1.00  0.00     0.017 A 
HETATM    4  C   UNK     1      60.518   5.480   6.650  1.00  0.00     0.017 A 
HETATM    5  C   UNK     1      59.194   6.608   4.475  1.00  0.00     0.015 A 
HETATM    6  C   UNK     1      61.178   6.396   5.822  1.00  0.00     0.015 A 
ENDROOT
BRANCH   2   7
HETATM    7  C   UNK     1      61.183   7.945   3.831  1.00  0.00     0.085 A 
HETATM    8  N   UNK     1      61.063   9.253   3.950  1.00  0.00    -0.344 N 
HETATM    9  C   UNK     1      61.796   9.912   2.961  1.00  0.00     0.117 A 
ATOM     10  HN  UNK     1      60.510   9.720   4.668  1.00  0.00     0.167 HD
HETATM   11  C   UNK     1      62.436   9.063   2.076  1.00  0.00     0.088 A 
HETATM   12  S   UNK     1      62.140   7.432   2.492  1.00  0.00    -0.081 SA
BRANCH   9  13
HETATM   13  C   UNK     1      61.879  11.366   2.870  1.00  0.00     0.227 C 
HETATM   14  O   UNK     1      61.859  12.011   1.829  1.00  0.00    -0.643 OA
HETATM   15  O   UNK     1      61.992  12.006   4.057  1.00  0.00    -0.643 OA
ENDBRANCH   9  13
ENDBRANCH   2   7
BRANCH   1  16
HETATM   16  C   UNK     1      58.488   4.138   7.306  1.00  0.00     0.417 C 
HETATM   17  F   UNK     1      59.321   3.515   8.185  1.00  0.00    -0.166 F 
HETATM   18  F   UNK     1      57.522   4.729   8.062  1.00  0.00    -0.166 F 
HETATM   19  F   UNK     1      57.864   3.144   6.615  1.00  0.00    -0.166 F 
ENDBRANCH   1  16
TORSDOF 3
ENDMDL
MODEL 9
REMARK VINA RESULT:      -4.6      4.930      5.824
REMARK  3 active torsions:
REMARK  status: ('A' for Active; 'I' for Inactive)
REMARK    1  A    between atoms: C_1  and  C_8 
REMARK    2  A    between atoms: C_4  and  C_10 
REMARK    3  A    between atoms: C_6  and  C_9 
ROOT
HETATM    1  C   UNK     1      57.454   6.432   5.170  1.00  0.00     0.048 A 
HETATM    2  C   UNK     1      60.178   6.952   4.579  1.00  0.00    -0.002 A 
HETATM    3  C   UNK     1      58.474   5.820   5.910  1.00  0.00     0.017 A 
HETATM    4  C   UNK     1      57.806   7.305   4.131  1.00  0.00     0.017 A 
HETATM    5  C   UNK     1      59.818   6.073   5.611  1.00  0.00     0.015 A 
HETATM    6  C   UNK     1      59.152   7.559   3.838  1.00  0.00     0.015 A 
ENDROOT
BRANCH   2   7
HETATM    7  C   UNK     1      61.605   7.183   4.294  1.00  0.00     0.085 A 
HETATM    8  N   UNK     1      62.384   7.975   5.004  1.00  0.00    -0.344 N 
HETATM    9  C   UNK     1      63.680   7.993   4.486  1.00  0.00     0.117 A 
ATOM     10  HN  UNK     1      62.081   8.503   5.822  1.00  0.00     0.167 HD
HETATM   11  C   UNK     1      63.841   7.223   3.348  1.00  0.00     0.088 A 
HETATM   12  S   UNK     1      62.371   6.457   2.932  1.00  0.00    -0.081 SA
BRANCH   9  13
HETATM   13  C   UNK     1      64.768   8.754   5.092  1.00  0.00     0.227 C 
HETATM   14  O   UNK     1      65.944   8.414   5.108  1.00  0.00    -0.643 OA
HETATM   15  O   UNK     1      64.394   9.917   5.674  1.00  0.00    -0.643 OA
ENDBRANCH   9  13
ENDBRANCH   2   7
BRANCH   1  16
HETATM   16  C   UNK     1      55.999   6.161   5.464  1.00  0.00     0.417 C 
HETATM   17  F   UNK     1      55.177   6.364   4.396  1.00  0.00    -0.166 F 
HETATM   18  F   UNK     1      55.779   4.878   5.865  1.00  0.00    -0.166 F 
HETATM   19  F   UNK     1      55.515   6.951   6.462  1.00  0.00    -0.166 F 
ENDBRANCH   1  16
TORSDOF 3
ENDMDL
