MODEL 1
REMARK VINA RESULT:      -5.2      0.000      0.000
REMARK  1 active torsions:
REMARK  status: ('A' for Active; 'I' for Inactive)
REMARK    1  A    between atoms: C_3  and  C_8 
ROOT
HETATM    1  N   UNL     1      64.767   7.789   6.316  1.00  0.00    -0.183 N 
ATOM      2  HN  UNL     1      65.339   8.625   6.434  1.00  0.00     0.185 HD
HETATM    3  C   UNL     1      63.705   7.687   5.541  1.00  0.00     0.117 A 
HETATM    4  C   UNL     1      64.975   6.578   6.942  1.00  0.00     0.683 A 
HETATM    5  N   UNL     1      64.161   5.557   6.700  1.00  0.00    -0.159 N 
ATOM      6  HN  UNL     1      64.209   4.626   7.114  1.00  0.00     0.193 HD
HETATM    7  S   UNL     1      63.045   6.096   5.589  1.00  0.00     0.021 SA
HETATM    8  N   UNL     1      65.995   6.529   7.804  1.00  0.00    -0.234 N 
HETATM    9  H   UNL     1      66.563   7.322   7.940  1.00  0.00     0.174 HD
HETATM   10  H   UNL     1      66.178   5.701   8.304  1.00  0.00     0.174 HD
ENDROOT
BRANCH   3  11
HETATM   11  C   UNL     1      63.137   8.753   4.705  1.00  0.00    -0.000 A 
HETATM   12  C   UNL     1      62.864   8.499   3.351  1.00  0.00     0.016 A 
HETATM   13  C   UNL     1      62.339   9.500   2.521  1.00  0.00     0.024 A 
HETATM   14  C   UNL     1      62.095  10.769   3.039  1.00  0.00     0.034 A 
HETATM   15  C   UNL     1      62.365  11.045   4.375  1.00  0.00     0.024 A 
HETATM   16 CL   UNL     1      61.467  12.006   2.022  1.00  0.00    -0.084 Cl
HETATM   17  C   UNL     1      62.884  10.043   5.204  1.00  0.00     0.016 A 
ENDBRANCH   3  11
TORSDOF 1
ENDMDL
MODEL 2
REMARK VINA RESULT:      -5.2      1.832      2.200
REMARK  1 active torsions:
REMARK  status: ('A' for Active; 'I' for Inactive)
REMARK    1  A    between atoms: C_3  and  C_8 
ROOT
HETATM    1  N   UNL     1      65.086   7.205   7.058  1.00  0.00    -0.183 N 
ATOM      2  HN  UNL     1      64.164   7.126   7.486  1.00  0.00     0.185 HD
HETATM    3  C   UNL     1      65.332   7.618   5.830  1.00  0.00     0.117 A 
HETATM    4  C   UNL     1      66.284   6.895   7.668  1.00  0.00     0.683 A 
HETATM    5  N   UNL     1      67.425   7.046   7.005  1.00  0.00    -0.159 N 
ATOM      6  HN  UNL     1      68.362   6.837   7.348  1.00  0.00     0.193 HD
HETATM    7  S   UNL     1      67.024   7.645   5.505  1.00  0.00     0.021 SA
HETATM    8  N   UNL     1      66.203   6.414   8.912  1.00  0.00    -0.234 N 
HETATM    9  H   UNL     1      65.326   6.326   9.349  1.00  0.00     0.174 HD
HETATM   10  H   UNL     1      67.021   6.148   9.391  1.00  0.00     0.174 HD
ENDROOT
BRANCH   3  11
HETATM   11  C   UNL     1      64.330   8.038   4.841  1.00  0.00    -0.000 A 
HETATM   12  C   UNL     1      64.133   7.263   3.685  1.00  0.00     0.016 A 
HETATM   13  C   UNL     1      63.198   7.645   2.713  1.00  0.00     0.024 A 
HETATM   14  C   UNL     1      62.461   8.814   2.884  1.00  0.00     0.034 A 
HETATM   15  C   UNL     1      62.646   9.599   4.017  1.00  0.00     0.024 A 
HETATM   16 CL   UNL     1      61.325   9.297   1.687  1.00  0.00    -0.084 Cl
HETATM   17  C   UNL     1      63.575   9.214   4.990  1.00  0.00     0.016 A 
ENDBRANCH   3  11
TORSDOF 1
ENDMDL
MODEL 3
REMARK VINA RESULT:      -4.7      1.840      2.548
REMARK  1 active torsions:
REMARK  status: ('A' for Active; 'I' for Inactive)
REMARK    1  A    between atoms: C_3  and  C_8 
ROOT
HETATM    1  N   UNL     1      65.660   8.265   5.345  1.00  0.00    -0.183 N 
ATOM      2  HN  UNL     1      66.136   8.899   4.704  1.00  0.00     0.185 HD
HETATM    3  C   UNL     1      64.497   7.682   5.130  1.00  0.00     0.117 A 
HETATM    4  C   UNL     1      66.127   7.876   6.583  1.00  0.00     0.683 A 
HETATM    5  N   UNL     1      65.416   7.036   7.327  1.00  0.00    -0.159 N 
ATOM      6  HN  UNL     1      65.654   6.693   8.258  1.00  0.00     0.193 HD
HETATM    7  S   UNL     1      64.060   6.653   6.442  1.00  0.00     0.021 SA
HETATM    8  N   UNL     1      67.284   8.420   6.973  1.00  0.00    -0.234 N 
HETATM    9  H   UNL     1      67.764   9.037   6.375  1.00  0.00     0.174 HD
HETATM   10  H   UNL     1      67.656   8.204   7.859  1.00  0.00     0.174 HD
ENDROOT
BRANCH   3  11
HETATM   11  C   UNL     1      63.659   7.836   3.933  1.00  0.00    -0.000 A 
HETATM   12  C   UNL     1      62.796   8.940   3.830  1.00  0.00     0.016 A 
HETATM   13  C   UNL     1      61.970   9.106   2.710  1.00  0.00     0.024 A 
HETATM   14  C   UNL     1      61.993   8.161   1.688  1.00  0.00     0.034 A 
HETATM   15  C   UNL     1      62.835   7.057   1.772  1.00  0.00     0.024 A 
HETATM   16 CL   UNL     1      60.970   8.351   0.319  1.00  0.00    -0.084 Cl
HETATM   17  C   UNL     1      63.663   6.895   2.889  1.00  0.00     0.016 A 
ENDBRANCH   3  11
TORSDOF 1
ENDMDL
MODEL 4
REMARK VINA RESULT:      -4.7      3.865      5.505
REMARK  1 active torsions:
REMARK  status: ('A' for Active; 'I' for Inactive)
REMARK    1  A    between atoms: C_3  and  C_8 
ROOT
HETATM    1  N   UNL     1      62.983   9.937   4.125  1.00  0.00    -0.183 N 
ATOM      2  HN  UNL     1      63.697  10.637   4.321  1.00  0.00     0.185 HD
HETATM    3  C   UNL     1      62.998   8.685   4.538  1.00  0.00     0.117 A 
HETATM    4  C   UNL     1      61.839  10.143   3.382  1.00  0.00     0.683 A 
HETATM    5  N   UNL     1      60.977   9.149   3.202  1.00  0.00    -0.159 N 
ATOM      6  HN  UNL     1      60.111   9.182   2.663  1.00  0.00     0.193 HD
HETATM    7  S   UNL     1      61.586   7.839   4.028  1.00  0.00     0.021 SA
HETATM    8  N   UNL     1      61.695  11.360   2.848  1.00  0.00    -0.234 N 
HETATM    9  H   UNL     1      62.371  12.055   3.020  1.00  0.00     0.174 HD
HETATM   10  H   UNL     1      60.914  11.561   2.285  1.00  0.00     0.174 HD
ENDROOT
BRANCH   3  11
HETATM   11  C   UNL     1      64.046   8.055   5.352  1.00  0.00    -0.000 A 
HETATM   12  C   UNL     1      63.728   6.941   6.147  1.00  0.00     0.016 A 
HETATM   13  C   UNL     1      64.700   6.327   6.949  1.00  0.00     0.024 A 
HETATM   14  C   UNL     1      65.997   6.832   6.971  1.00  0.00     0.034 A 
HETATM   15  C   UNL     1      66.332   7.938   6.197  1.00  0.00     0.024 A 
HETATM   16 CL   UNL     1      67.190   6.094   7.967  1.00  0.00    -0.084 Cl
HETATM   17  C   UNL     1      65.362   8.547   5.393  1.00  0.00     0.016 A 
ENDBRANCH   3  11
TORSDOF 1
ENDMDL
MODEL 5
REMARK VINA RESULT:      -4.5      4.000      5.581
REMARK  1 active torsions:
REMARK  status: ('A' for Active; 'I' for Inactive)
REMARK    1  A    between atoms: C_3  and  C_8 
ROOT
HETATM    1  N   UNL     1      62.039   7.861   3.879  1.00  0.00    -0.183 N 
ATOM      2  HN  UNL     1      62.043   6.850   3.743  1.00  0.00     0.185 HD
HETATM    3  C   UNL     1      62.897   8.540   4.615  1.00  0.00     0.117 A 
HETATM    4  C   UNL     1      61.138   8.743   3.322  1.00  0.00     0.683 A 
HETATM    5  N   UNL     1      61.243  10.043   3.569  1.00  0.00    -0.159 N 
ATOM      6  HN  UNL     1      60.628  10.782   3.226  1.00  0.00     0.193 HD
HETATM    7  S   UNL     1      62.574  10.232   4.550  1.00  0.00     0.021 SA
HETATM    8  N   UNL     1      60.168   8.202   2.578  1.00  0.00    -0.234 N 
HETATM    9  H   UNL     1      60.145   7.229   2.432  1.00  0.00     0.174 HD
HETATM   10  H   UNL     1      59.477   8.776   2.177  1.00  0.00     0.174 HD
ENDROOT
BRANCH   3  11
HETATM   11  C   UNL     1      64.013   7.978   5.387  1.00  0.00    -0.000 A 
HETATM   12  C   UNL     1      65.314   8.467   5.178  1.00  0.00     0.016 A 
HETATM   13  C   UNL     1      66.404   7.939   5.884  1.00  0.00     0.024 A 
HETATM   14  C   UNL     1      66.201   6.908   6.797  1.00  0.00     0.034 A 
HETATM   15  C   UNL     1      64.923   6.404   7.014  1.00  0.00     0.024 A 
HETATM   16 CL   UNL     1      67.537   6.245   7.655  1.00  0.00    -0.084 Cl
HETATM   17  C   UNL     1      63.835   6.935   6.313  1.00  0.00     0.016 A 
ENDBRANCH   3  11
TORSDOF 1
ENDMDL
MODEL 6
REMARK VINA RESULT:      -4.5      2.050      2.694
REMARK  1 active torsions:
REMARK  status: ('A' for Active; 'I' for Inactive)
REMARK    1  A    between atoms: C_3  and  C_8 
ROOT
HETATM    1  N   UNL     1      65.989   7.093   7.653  1.00  0.00    -0.183 N 
ATOM      2  HN  UNL     1      66.176   8.095   7.640  1.00  0.00     0.185 HD
HETATM    3  C   UNL     1      65.066   6.474   6.944  1.00  0.00     0.117 A 
HETATM    4  C   UNL     1      66.661   6.160   8.415  1.00  0.00     0.683 A 
HETATM    5  N   UNL     1      66.328   4.878   8.340  1.00  0.00    -0.159 N 
ATOM      6  HN  UNL     1      66.743   4.107   8.864  1.00  0.00     0.193 HD
HETATM    7  S   UNL     1      65.100   4.773   7.221  1.00  0.00     0.021 SA
HETATM    8  N   UNL     1      67.606   6.638   9.231  1.00  0.00    -0.234 N 
HETATM    9  H   UNL     1      67.806   7.602   9.240  1.00  0.00     0.174 HD
HETATM   10  H   UNL     1      68.101   6.027   9.822  1.00  0.00     0.174 HD
ENDROOT
BRANCH   3  11
HETATM   11  C   UNL     1      64.125   7.103   6.007  1.00  0.00    -0.000 A 
HETATM   12  C   UNL     1      62.808   6.622   5.923  1.00  0.00     0.016 A 
HETATM   13  C   UNL     1      61.891   7.188   5.026  1.00  0.00     0.024 A 
HETATM   14  C   UNL     1      62.290   8.234   4.198  1.00  0.00     0.034 A 
HETATM   15  C   UNL     1      63.591   8.720   4.260  1.00  0.00     0.024 A 
HETATM   16 CL   UNL     1      61.174   8.921   3.084  1.00  0.00    -0.084 Cl
HETATM   17  C   UNL     1      64.504   8.158   5.160  1.00  0.00     0.016 A 
ENDBRANCH   3  11
TORSDOF 1
ENDMDL
MODEL 7
REMARK VINA RESULT:      -4.2      2.041      2.586
REMARK  1 active torsions:
REMARK  status: ('A' for Active; 'I' for Inactive)
REMARK    1  A    between atoms: C_3  and  C_8 
ROOT
HETATM    1  N   UNL     1      64.808   8.048   4.724  1.00  0.00    -0.183 N 
ATOM      2  HN  UNL     1      65.232   8.510   3.920  1.00  0.00     0.185 HD
HETATM    3  C   UNL     1      63.559   7.631   4.800  1.00  0.00     0.117 A 
HETATM    4  C   UNL     1      65.445   7.755   5.911  1.00  0.00     0.683 A 
HETATM    5  N   UNL     1      64.784   7.142   6.885  1.00  0.00    -0.159 N 
ATOM      6  HN  UNL     1      65.147   6.890   7.805  1.00  0.00     0.193 HD
HETATM    7  S   UNL     1      63.247   6.864   6.312  1.00  0.00     0.021 SA
HETATM    8  N   UNL     1      66.716   8.158   6.011  1.00  0.00    -0.234 N 
HETATM    9  H   UNL     1      67.150   8.608   5.251  1.00  0.00     0.174 HD
HETATM   10  H   UNL     1      67.217   8.003   6.844  1.00  0.00     0.174 HD
ENDROOT
BRANCH   3  11
HETATM   11  C   UNL     1      62.537   7.757   3.752  1.00  0.00    -0.000 A 
HETATM   12  C   UNL     1      62.743   8.653   2.690  1.00  0.00     0.016 A 
HETATM   13  C   UNL     1      61.780   8.811   1.683  1.00  0.00     0.024 A 
HETATM   14  C   UNL     1      60.597   8.080   1.739  1.00  0.00     0.034 A 
HETATM   15  C   UNL     1      60.369   7.193   2.786  1.00  0.00     0.024 A 
HETATM   16 CL   UNL     1      59.404   8.282   0.517  1.00  0.00    -0.084 Cl
HETATM   17  C   UNL     1      61.333   7.032   3.787  1.00  0.00     0.016 A 
ENDBRANCH   3  11
TORSDOF 1
ENDMDL
MODEL 8
REMARK VINA RESULT:      -4.2      2.280      3.196
REMARK  1 active torsions:
REMARK  status: ('A' for Active; 'I' for Inactive)
REMARK    1  A    between atoms: C_3  and  C_8 
ROOT
HETATM    1  N   UNL     1      65.744   5.541   7.547  1.00  0.00    -0.183 N 
ATOM      2  HN  UNL     1      64.864   5.284   7.996  1.00  0.00     0.185 HD
HETATM    3  C   UNL     1      65.879   6.403   6.559  1.00  0.00     0.117 A 
HETATM    4  C   UNL     1      66.988   5.045   7.875  1.00  0.00     0.683 A 
HETATM    5  N   UNL     1      68.064   5.464   7.220  1.00  0.00    -0.159 N 
ATOM      6  HN  UNL     1      69.026   5.158   7.366  1.00  0.00     0.193 HD
HETATM    7  S   UNL     1      67.534   6.589   6.113  1.00  0.00     0.021 SA
HETATM    8  N   UNL     1      67.016   4.117   8.837  1.00  0.00    -0.234 N 
HETATM    9  H   UNL     1      66.182   3.849   9.286  1.00  0.00     0.174 HD
HETATM   10  H   UNL     1      67.870   3.704   9.097  1.00  0.00     0.174 HD
ENDROOT
BRANCH   3  11
HETATM   11  C   UNL     1      64.797   7.152   5.907  1.00  0.00    -0.000 A 
HETATM   12  C   UNL     1      65.075   8.395   5.314  1.00  0.00     0.016 A 
HETATM   13  C   UNL     1      64.061   9.144   4.700  1.00  0.00     0.024 A 
HETATM   14  C   UNL     1      62.757   8.659   4.686  1.00  0.00     0.034 A 
HETATM   15  C   UNL     1      62.457   7.434   5.274  1.00  0.00     0.024 A 
HETATM   16 CL   UNL     1      61.505   9.580   3.950  1.00  0.00    -0.084 Cl
HETATM   17  C   UNL     1      63.471   6.685   5.881  1.00  0.00     0.016 A 
ENDBRANCH   3  11
TORSDOF 1
ENDMDL
MODEL 9
REMARK VINA RESULT:      -4.1     12.785     13.985
REMARK  1 active torsions:
REMARK  status: ('A' for Active; 'I' for Inactive)
REMARK    1  A    between atoms: C_3  and  C_8 
ROOT
HETATM    1  N   UNL     1      55.913   2.756  14.019  1.00  0.00    -0.183 N 
ATOM      2  HN  UNL     1      56.557   3.502  13.759  1.00  0.00     0.185 HD
HETATM    3  C   UNL     1      56.200   1.469  14.056  1.00  0.00     0.117 A 
HETATM    4  C   UNL     1      54.595   2.926  14.390  1.00  0.00     0.683 A 
HETATM    5  N   UNL     1      53.856   1.872  14.715  1.00  0.00    -0.159 N 
ATOM      6  HN  UNL     1      52.874   1.876  14.989  1.00  0.00     0.193 HD
HETATM    7  S   UNL     1      54.848   0.541  14.586  1.00  0.00     0.021 SA
HETATM    8  N   UNL     1      54.133   4.179  14.360  1.00  0.00    -0.234 N 
HETATM    9  H   UNL     1      54.733   4.919  14.110  1.00  0.00     0.174 HD
HETATM   10  H   UNL     1      53.193   4.363  14.587  1.00  0.00     0.174 HD
ENDROOT
BRANCH   3  11
HETATM   11  C   UNL     1      57.495   0.861  13.724  1.00  0.00    -0.000 A 
HETATM   12  C   UNL     1      58.583   1.687  13.396  1.00  0.00     0.016 A 
HETATM   13  C   UNL     1      59.828   1.137  13.056  1.00  0.00     0.024 A 
HETATM   14  C   UNL     1      59.989  -0.245  13.031  1.00  0.00     0.034 A 
HETATM   15  C   UNL     1      58.923  -1.081  13.345  1.00  0.00     0.024 A 
HETATM   16 CL   UNL     1      61.508  -0.925  12.598  1.00  0.00    -0.084 Cl
HETATM   17  C   UNL     1      57.682  -0.532  13.689  1.00  0.00     0.016 A 
ENDBRANCH   3  11
TORSDOF 1
ENDMDL
