MODEL 1
REMARK VINA RESULT:      -5.6      0.000      0.000
REMARK  2 active torsions:
REMARK  status: ('A' for Active; 'I' for Inactive)
REMARK    1  A    between atoms: N_1  and  C_7 
REMARK    2  A    between atoms: C_7  and  C_11 
ROOT
HETATM    1  N   UNL     1      65.134   7.178   5.483  1.00  0.00    -0.058 N 
HETATM    2  C   UNL     1      65.274   5.840   6.081  1.00  0.00     0.196 C 
HETATM    3  C   UNL     1      66.523   7.657   5.415  1.00  0.00     0.196 C 
HETATM    4  C   UNL     1      66.609   7.033   7.847  1.00  0.00     0.131 C 
HETATM    5  C   UNL     1      65.461   6.077   7.585  1.00  0.00     0.111 C 
HETATM    6  C   UNL     1      66.872   8.129   6.831  1.00  0.00     0.111 C 
HETATM    7  C   UNL     1      67.363   6.442   5.015  1.00  0.00     0.036 C 
HETATM    8  C   UNL     1      66.529   5.238   5.442  1.00  0.00     0.036 C 
HETATM    9  O   UNL     1      67.240   6.987   8.901  1.00  0.00    -0.298 OA
HETATM   10  H   UNL     1      64.540   7.793   6.040  1.00  0.00     0.281 HD
ENDROOT
BRANCH   1  11
HETATM   11  C   UNL     1      64.412   7.205   4.206  1.00  0.00     0.274 C 
BRANCH  11  12
HETATM   12  C   UNL     1      63.549   8.446   4.020  1.00  0.00    -0.033 A 
HETATM   13  C   UNL     1      62.760   8.646   2.874  1.00  0.00     0.009 A 
HETATM   14  C   UNL     1      61.978   9.795   2.728  1.00  0.00     0.001 A 
HETATM   15  C   UNL     1      61.945  10.749   3.742  1.00  0.00     0.000 A 
HETATM   16  C   UNL     1      62.684  10.545   4.906  1.00  0.00     0.001 A 
HETATM   17  C   UNL     1      63.475   9.400   5.047  1.00  0.00     0.009 A 
ENDBRANCH  11  12
ENDBRANCH   1  11
TORSDOF 2
ENDMDL
MODEL 2
REMARK VINA RESULT:      -5.5      1.542      2.791
REMARK  2 active torsions:
REMARK  status: ('A' for Active; 'I' for Inactive)
REMARK    1  A    between atoms: N_1  and  C_7 
REMARK    2  A    between atoms: C_7  and  C_11 
ROOT
HETATM    1  N   UNL     1      64.562   7.349   5.169  1.00  0.00    -0.058 N 
HETATM    2  C   UNL     1      65.939   7.858   5.055  1.00  0.00     0.196 C 
HETATM    3  C   UNL     1      64.681   6.301   6.193  1.00  0.00     0.196 C 
HETATM    4  C   UNL     1      66.553   5.438   4.756  1.00  0.00     0.131 C 
HETATM    5  C   UNL     1      66.687   6.837   4.188  1.00  0.00     0.111 C 
HETATM    6  C   UNL     1      65.266   5.079   5.475  1.00  0.00     0.111 C 
HETATM    7  C   UNL     1      65.658   6.847   7.237  1.00  0.00     0.036 C 
HETATM    8  C   UNL     1      66.481   7.890   6.487  1.00  0.00     0.036 C 
HETATM    9  O   UNL     1      67.417   4.589   4.551  1.00  0.00    -0.298 OA
HETATM   10  H   UNL     1      64.207   6.986   4.284  1.00  0.00     0.281 HD
ENDROOT
BRANCH   1  11
HETATM   11  C   UNL     1      63.553   8.375   5.454  1.00  0.00     0.274 C 
BRANCH  11  12
HETATM   12  C   UNL     1      62.937   8.988   4.202  1.00  0.00    -0.033 A 
HETATM   13  C   UNL     1      62.440  10.302   4.177  1.00  0.00     0.009 A 
HETATM   14  C   UNL     1      61.880  10.840   3.015  1.00  0.00     0.001 A 
HETATM   15  C   UNL     1      61.838  10.083   1.847  1.00  0.00     0.000 A 
HETATM   16  C   UNL     1      62.370   8.795   1.840  1.00  0.00     0.001 A 
HETATM   17  C   UNL     1      62.921   8.253   3.006  1.00  0.00     0.009 A 
ENDBRANCH  11  12
ENDBRANCH   1  11
TORSDOF 2
ENDMDL
MODEL 3
REMARK VINA RESULT:      -5.3      3.123      6.147
REMARK  2 active torsions:
REMARK  status: ('A' for Active; 'I' for Inactive)
REMARK    1  A    between atoms: N_1  and  C_7 
REMARK    2  A    between atoms: C_7  and  C_11 
ROOT
HETATM    1  N   UNL     1      62.959   8.346   3.029  1.00  0.00    -0.058 N 
HETATM    2  C   UNL     1      62.246   8.382   1.741  1.00  0.00     0.196 C 
HETATM    3  C   UNL     1      62.000   8.965   3.956  1.00  0.00     0.196 C 
HETATM    4  C   UNL     1      61.923  10.821   2.263  1.00  0.00     0.131 C 
HETATM    5  C   UNL     1      62.395   9.819   1.227  1.00  0.00     0.111 C 
HETATM    6  C   UNL     1      62.116  10.477   3.729  1.00  0.00     0.111 C 
HETATM    7  C   UNL     1      60.622   8.449   3.536  1.00  0.00     0.036 C 
HETATM    8  C   UNL     1      60.789   8.048   2.074  1.00  0.00     0.036 C 
HETATM    9  O   UNL     1      61.493  11.922   1.926  1.00  0.00    -0.298 OA
HETATM   10  H   UNL     1      63.846   8.849   2.997  1.00  0.00     0.281 HD
ENDROOT
BRANCH   1  11
HETATM   11  C   UNL     1      63.429   7.015   3.430  1.00  0.00     0.274 C 
BRANCH  11  12
HETATM   12  C   UNL     1      64.848   7.011   3.984  1.00  0.00    -0.033 A 
HETATM   13  C   UNL     1      65.288   7.957   4.926  1.00  0.00     0.009 A 
HETATM   14  C   UNL     1      66.596   7.932   5.418  1.00  0.00     0.001 A 
HETATM   15  C   UNL     1      67.478   6.938   5.000  1.00  0.00     0.000 A 
HETATM   16  C   UNL     1      67.045   5.963   4.103  1.00  0.00     0.001 A 
HETATM   17  C   UNL     1      65.739   5.996   3.603  1.00  0.00     0.009 A 
ENDBRANCH  11  12
ENDBRANCH   1  11
TORSDOF 2
ENDMDL
MODEL 4
REMARK VINA RESULT:      -5.0      1.644      2.785
REMARK  2 active torsions:
REMARK  status: ('A' for Active; 'I' for Inactive)
REMARK    1  A    between atoms: N_1  and  C_7 
REMARK    2  A    between atoms: C_7  and  C_11 
ROOT
HETATM    1  N   UNL     1      66.165   6.499   6.177  1.00  0.00    -0.058 N 
HETATM    2  C   UNL     1      67.540   6.178   6.594  1.00  0.00     0.196 C 
HETATM    3  C   UNL     1      65.355   6.012   7.303  1.00  0.00     0.196 C 
HETATM    4  C   UNL     1      66.626   3.868   6.982  1.00  0.00     0.131 C 
HETATM    5  C   UNL     1      67.718   4.681   6.313  1.00  0.00     0.111 C 
HETATM    6  C   UNL     1      65.250   4.494   7.116  1.00  0.00     0.111 C 
HETATM    7  C   UNL     1      66.147   6.359   8.566  1.00  0.00     0.036 C 
HETATM    8  C   UNL     1      67.592   6.484   8.093  1.00  0.00     0.036 C 
HETATM    9  O   UNL     1      66.821   2.700   7.311  1.00  0.00    -0.298 OA
HETATM   10  H   UNL     1      65.911   6.051   5.296  1.00  0.00     0.281 HD
ENDROOT
BRANCH   1  11
HETATM   11  C   UNL     1      65.945   7.907   5.826  1.00  0.00     0.274 C 
BRANCH  11  12
HETATM   12  C   UNL     1      64.771   8.123   4.880  1.00  0.00    -0.033 A 
HETATM   13  C   UNL     1      64.470   7.227   3.840  1.00  0.00     0.009 A 
HETATM   14  C   UNL     1      63.387   7.449   2.986  1.00  0.00     0.001 A 
HETATM   15  C   UNL     1      62.564   8.556   3.178  1.00  0.00     0.000 A 
HETATM   16  C   UNL     1      62.818   9.430   4.233  1.00  0.00     0.001 A 
HETATM   17  C   UNL     1      63.909   9.213   5.082  1.00  0.00     0.009 A 
ENDBRANCH  11  12
ENDBRANCH   1  11
TORSDOF 2
ENDMDL
MODEL 5
REMARK VINA RESULT:      -4.9      4.603      6.246
REMARK  2 active torsions:
REMARK  status: ('A' for Active; 'I' for Inactive)
REMARK    1  A    between atoms: N_1  and  C_7 
REMARK    2  A    between atoms: C_7  and  C_11 
ROOT
HETATM    1  N   UNL     1      61.022   8.007   3.507  1.00  0.00    -0.058 N 
HETATM    2  C   UNL     1      62.050   8.776   4.227  1.00  0.00     0.196 C 
HETATM    3  C   UNL     1      61.578   7.898   2.151  1.00  0.00     0.196 C 
HETATM    4  C   UNL     1      61.839  10.392   2.312  1.00  0.00     0.131 C 
HETATM    5  C   UNL     1      61.832  10.239   3.821  1.00  0.00     0.111 C 
HETATM    6  C   UNL     1      61.300   9.246   1.475  1.00  0.00     0.111 C 
HETATM    7  C   UNL     1      63.081   7.672   2.334  1.00  0.00     0.036 C 
HETATM    8  C   UNL     1      63.391   8.240   3.716  1.00  0.00     0.036 C 
HETATM    9  O   UNL     1      62.172  11.452   1.787  1.00  0.00    -0.298 OA
HETATM   10  H   UNL     1      60.112   8.470   3.516  1.00  0.00     0.281 HD
ENDROOT
BRANCH   1  11
HETATM   11  C   UNL     1      60.667   6.727   4.131  1.00  0.00     0.274 C 
BRANCH  11  12
HETATM   12  C   UNL     1      59.225   6.664   4.617  1.00  0.00    -0.033 A 
HETATM   13  C   UNL     1      58.166   7.245   3.899  1.00  0.00     0.009 A 
HETATM   14  C   UNL     1      56.851   7.173   4.367  1.00  0.00     0.001 A 
HETATM   15  C   UNL     1      56.568   6.488   5.546  1.00  0.00     0.000 A 
HETATM   16  C   UNL     1      57.599   5.865   6.247  1.00  0.00     0.001 A 
HETATM   17  C   UNL     1      58.916   5.946   5.783  1.00  0.00     0.009 A 
ENDBRANCH  11  12
ENDBRANCH   1  11
TORSDOF 2
ENDMDL
MODEL 6
REMARK VINA RESULT:      -4.9      4.006      4.958
REMARK  2 active torsions:
REMARK  status: ('A' for Active; 'I' for Inactive)
REMARK    1  A    between atoms: N_1  and  C_7 
REMARK    2  A    between atoms: C_7  and  C_11 
ROOT
HETATM    1  N   UNL     1      61.464   6.954   4.991  1.00  0.00    -0.058 N 
HETATM    2  C   UNL     1      60.469   6.337   4.099  1.00  0.00     0.196 C 
HETATM    3  C   UNL     1      61.722   5.897   5.980  1.00  0.00     0.196 C 
HETATM    4  C   UNL     1      59.222   5.846   6.226  1.00  0.00     0.131 C 
HETATM    5  C   UNL     1      59.129   6.447   4.837  1.00  0.00     0.111 C 
HETATM    6  C   UNL     1      60.546   5.948   6.962  1.00  0.00     0.111 C 
HETATM    7  C   UNL     1      61.729   4.583   5.194  1.00  0.00     0.036 C 
HETATM    8  C   UNL     1      60.911   4.880   3.941  1.00  0.00     0.036 C 
HETATM    9  O   UNL     1      58.228   5.383   6.782  1.00  0.00    -0.298 OA
HETATM   10  H   UNL     1      61.122   7.812   5.422  1.00  0.00     0.281 HD
ENDROOT
BRANCH   1  11
HETATM   11  C   UNL     1      62.661   7.464   4.311  1.00  0.00     0.274 C 
BRANCH  11  12
HETATM   12  C   UNL     1      62.400   8.706   3.468  1.00  0.00    -0.033 A 
HETATM   13  C   UNL     1      62.340   8.661   2.065  1.00  0.00     0.009 A 
HETATM   14  C   UNL     1      62.099   9.815   1.315  1.00  0.00     0.001 A 
HETATM   15  C   UNL     1      61.881  11.031   1.959  1.00  0.00     0.000 A 
HETATM   16  C   UNL     1      61.889  11.086   3.351  1.00  0.00     0.001 A 
HETATM   17  C   UNL     1      62.141   9.932   4.101  1.00  0.00     0.009 A 
ENDBRANCH  11  12
ENDBRANCH   1  11
TORSDOF 2
ENDMDL
MODEL 7
REMARK VINA RESULT:      -4.8      4.030      5.407
REMARK  2 active torsions:
REMARK  status: ('A' for Active; 'I' for Inactive)
REMARK    1  A    between atoms: N_1  and  C_7 
REMARK    2  A    between atoms: C_7  and  C_11 
ROOT
HETATM    1  N   UNL     1      61.181   8.165   3.949  1.00  0.00    -0.058 N 
HETATM    2  C   UNL     1      62.378   7.371   3.627  1.00  0.00     0.196 C 
HETATM    3  C   UNL     1      61.571   9.527   3.551  1.00  0.00     0.196 C 
HETATM    4  C   UNL     1      63.599   9.108   4.975  1.00  0.00     0.131 C 
HETATM    5  C   UNL     1      63.363   7.623   4.776  1.00  0.00     0.111 C 
HETATM    6  C   UNL     1      62.450  10.059   4.689  1.00  0.00     0.111 C 
HETATM    7  C   UNL     1      62.375   9.369   2.259  1.00  0.00     0.036 C 
HETATM    8  C   UNL     1      62.897   7.936   2.302  1.00  0.00     0.036 C 
HETATM    9  O   UNL     1      64.653   9.521   5.453  1.00  0.00    -0.298 OA
HETATM   10  H   UNL     1      60.930   8.108   4.936  1.00  0.00     0.281 HD
ENDROOT
BRANCH   1  11
HETATM   11  C   UNL     1      59.940   7.677   3.336  1.00  0.00     0.274 C 
BRANCH  11  12
HETATM   12  C   UNL     1      58.951   7.100   4.340  1.00  0.00    -0.033 A 
HETATM   13  C   UNL     1      57.587   7.439   4.329  1.00  0.00     0.009 A 
HETATM   14  C   UNL     1      56.701   6.895   5.263  1.00  0.00     0.001 A 
HETATM   15  C   UNL     1      57.157   5.975   6.203  1.00  0.00     0.000 A 
HETATM   16  C   UNL     1      58.496   5.590   6.198  1.00  0.00     0.001 A 
HETATM   17  C   UNL     1      59.386   6.143   5.271  1.00  0.00     0.009 A 
ENDBRANCH  11  12
ENDBRANCH   1  11
TORSDOF 2
ENDMDL
MODEL 8
REMARK VINA RESULT:      -4.7      5.173      6.492
REMARK  2 active torsions:
REMARK  status: ('A' for Active; 'I' for Inactive)
REMARK    1  A    between atoms: N_1  and  C_7 
REMARK    2  A    between atoms: C_7  and  C_11 
ROOT
HETATM    1  N   UNL     1      59.926   6.918   4.358  1.00  0.00    -0.058 N 
HETATM    2  C   UNL     1      58.786   7.035   3.433  1.00  0.00     0.196 C 
HETATM    3  C   UNL     1      59.636   5.671   5.082  1.00  0.00     0.196 C 
HETATM    4  C   UNL     1      57.387   6.712   5.496  1.00  0.00     0.131 C 
HETATM    5  C   UNL     1      57.625   7.578   4.275  1.00  0.00     0.111 C 
HETATM    6  C   UNL     1      58.585   6.035   6.137  1.00  0.00     0.111 C 
HETATM    7  C   UNL     1      59.062   4.708   4.040  1.00  0.00     0.036 C 
HETATM    8  C   UNL     1      58.513   5.611   2.940  1.00  0.00     0.036 C 
HETATM    9  O   UNL     1      56.275   6.643   6.014  1.00  0.00    -0.298 OA
HETATM   10  H   UNL     1      60.003   7.720   4.984  1.00  0.00     0.281 HD
ENDROOT
BRANCH   1  11
HETATM   11  C   UNL     1      61.243   6.962   3.713  1.00  0.00     0.274 C 
BRANCH  11  12
HETATM   12  C   UNL     1      61.548   8.295   3.041  1.00  0.00    -0.033 A 
HETATM   13  C   UNL     1      61.701   8.415   1.649  1.00  0.00     0.009 A 
HETATM   14  C   UNL     1      61.981   9.650   1.058  1.00  0.00     0.001 A 
HETATM   15  C   UNL     1      62.079  10.794   1.846  1.00  0.00     0.000 A 
HETATM   16  C   UNL     1      61.883  10.702   3.223  1.00  0.00     0.001 A 
HETATM   17  C   UNL     1      61.614   9.464   3.816  1.00  0.00     0.009 A 
ENDBRANCH  11  12
ENDBRANCH   1  11
TORSDOF 2
ENDMDL
MODEL 9
REMARK VINA RESULT:      -4.5      2.553      5.745
REMARK  2 active torsions:
REMARK  status: ('A' for Active; 'I' for Inactive)
REMARK    1  A    between atoms: N_1  and  C_7 
REMARK    2  A    between atoms: C_7  and  C_11 
ROOT
HETATM    1  N   UNL     1      64.880   7.106   5.142  1.00  0.00    -0.058 N 
HETATM    2  C   UNL     1      63.880   6.389   5.949  1.00  0.00     0.196 C 
HETATM    3  C   UNL     1      64.054   7.938   4.255  1.00  0.00     0.196 C 
HETATM    4  C   UNL     1      62.871   5.785   3.727  1.00  0.00     0.131 C 
HETATM    5  C   UNL     1      63.367   5.252   5.057  1.00  0.00     0.111 C 
HETATM    6  C   UNL     1      63.563   7.003   3.143  1.00  0.00     0.111 C 
HETATM    7  C   UNL     1      62.888   8.434   5.114  1.00  0.00     0.036 C 
HETATM    8  C   UNL     1      62.783   7.416   6.246  1.00  0.00     0.036 C 
HETATM    9  O   UNL     1      62.006   5.187   3.090  1.00  0.00    -0.298 OA
HETATM   10  H   UNL     1      65.488   6.473   4.622  1.00  0.00     0.281 HD
ENDROOT
BRANCH   1  11
HETATM   11  C   UNL     1      65.880   7.845   5.922  1.00  0.00     0.274 C 
BRANCH  11  12
HETATM   12  C   UNL     1      66.653   6.973   6.904  1.00  0.00    -0.033 A 
HETATM   13  C   UNL     1      66.667   7.229   8.285  1.00  0.00     0.009 A 
HETATM   14  C   UNL     1      67.385   6.414   9.164  1.00  0.00     0.001 A 
HETATM   15  C   UNL     1      68.075   5.306   8.678  1.00  0.00     0.000 A 
HETATM   16  C   UNL     1      68.033   5.008   7.318  1.00  0.00     0.001 A 
HETATM   17  C   UNL     1      67.323   5.831   6.437  1.00  0.00     0.009 A 
ENDBRANCH  11  12
ENDBRANCH   1  11
TORSDOF 2
ENDMDL
