MODEL 1
REMARK VINA RESULT:      -4.8      0.000      0.000
REMARK  2 active torsions:
REMARK  status: ('A' for Active; 'I' for Inactive)
REMARK    1  A    between atoms: C_1  and  C_2 
REMARK    2  A    between atoms: C_2  and  C_9 
ROOT
HETATM    1  N   UNL     1      66.992   7.282   7.369  1.00  0.00    -0.075 N 
HETATM    2  C   UNL     1      64.757   6.976   5.487  1.00  0.00     0.064 C 
HETATM    3  C   UNL     1      65.815   6.501   7.772  1.00  0.00     0.233 C 
HETATM    4  C   UNL     1      66.600   8.410   6.515  1.00  0.00     0.233 C 
HETATM    5  C   UNL     1      65.132   5.897   6.533  1.00  0.00     0.040 C 
HETATM    6  C   UNL     1      65.973   7.881   5.218  1.00  0.00     0.040 C 
HETATM    7  H   UNL     1      67.634   6.679   6.855  1.00  0.00     0.277 HD
HETATM    8  H   UNL     1      67.445   7.647   8.207  1.00  0.00     0.277 HD
ENDROOT
BRANCH   2   9
HETATM    9  C   UNL     1      63.501   7.769   5.846  1.00  0.00     0.170 C 
HETATM   10  O   UNL     1      62.943   7.601   6.915  1.00  0.00    -0.291 OA
BRANCH   9  11
HETATM   11  C   UNL     1      62.972   8.800   4.901  1.00  0.00     0.051 A 
HETATM   12  S   UNL     1      62.851  10.457   5.211  1.00  0.00    -0.098 SA
HETATM   13  C   UNL     1      62.155  10.889   3.750  1.00  0.00     0.050 A 
HETATM   14  C   UNL     1      62.007   9.741   2.986  1.00  0.00     0.009 A 
HETATM   15  C   UNL     1      62.462   8.573   3.624  1.00  0.00     0.023 A 
ENDBRANCH   9  11
ENDBRANCH   2   9
TORSDOF 2
ENDMDL
MODEL 2
REMARK VINA RESULT:      -4.4      1.570      1.761
REMARK  2 active torsions:
REMARK  status: ('A' for Active; 'I' for Inactive)
REMARK    1  A    between atoms: C_1  and  C_2 
REMARK    2  A    between atoms: C_2  and  C_9 
ROOT
HETATM    1  N   UNL     1      67.194   5.785   7.111  1.00  0.00    -0.075 N 
HETATM    2  C   UNL     1      65.321   6.935   5.161  1.00  0.00     0.064 C 
HETATM    3  C   UNL     1      65.814   6.077   7.525  1.00  0.00     0.233 C 
HETATM    4  C   UNL     1      67.670   6.784   6.147  1.00  0.00     0.233 C 
HETATM    5  C   UNL     1      64.872   6.001   6.311  1.00  0.00     0.040 C 
HETATM    6  C   UNL     1      66.818   6.718   4.872  1.00  0.00     0.040 C 
HETATM    7  H   UNL     1      67.225   4.862   6.680  1.00  0.00     0.277 HD
HETATM    8  H   UNL     1      67.795   5.811   7.934  1.00  0.00     0.277 HD
ENDROOT
BRANCH   2   9
HETATM    9  C   UNL     1      64.973   8.405   5.393  1.00  0.00     0.170 C 
HETATM   10  O   UNL     1      65.676   9.108   6.097  1.00  0.00    -0.291 OA
BRANCH   9  11
HETATM   11  C   UNL     1      63.787   9.009   4.711  1.00  0.00     0.051 A 
HETATM   12  S   UNL     1      62.975   8.359   3.379  1.00  0.00    -0.098 SA
HETATM   13  C   UNL     1      61.856   9.593   3.199  1.00  0.00     0.050 A 
HETATM   14  C   UNL     1      62.094  10.539   4.185  1.00  0.00     0.009 A 
HETATM   15  C   UNL     1      63.170  10.217   5.031  1.00  0.00     0.023 A 
ENDBRANCH   9  11
ENDBRANCH   2   9
TORSDOF 2
ENDMDL
MODEL 3
REMARK VINA RESULT:      -4.1      2.410      3.259
REMARK  2 active torsions:
REMARK  status: ('A' for Active; 'I' for Inactive)
REMARK    1  A    between atoms: C_1  and  C_2 
REMARK    2  A    between atoms: C_2  and  C_9 
ROOT
HETATM    1  N   UNL     1      67.973   3.838   6.363  1.00  0.00    -0.075 N 
HETATM    2  C   UNL     1      67.229   6.673   6.563  1.00  0.00     0.064 C 
HETATM    3  C   UNL     1      67.143   4.439   5.310  1.00  0.00     0.233 C 
HETATM    4  C   UNL     1      67.650   4.414   7.673  1.00  0.00     0.233 C 
HETATM    5  C   UNL     1      67.428   5.948   5.209  1.00  0.00     0.040 C 
HETATM    6  C   UNL     1      67.979   5.913   7.672  1.00  0.00     0.040 C 
HETATM    7  H   UNL     1      68.956   4.012   6.153  1.00  0.00     0.277 HD
HETATM    8  H   UNL     1      67.790   2.835   6.391  1.00  0.00     0.277 HD
ENDROOT
BRANCH   2   9
HETATM    9  C   UNL     1      65.764   6.930   6.912  1.00  0.00     0.170 C 
HETATM   10  O   UNL     1      65.379   6.874   8.066  1.00  0.00    -0.291 OA
BRANCH   9  11
HETATM   11  C   UNL     1      64.794   7.304   5.837  1.00  0.00     0.051 A 
HETATM   12  S   UNL     1      63.619   6.290   5.167  1.00  0.00    -0.098 SA
HETATM   13  C   UNL     1      63.013   7.385   4.054  1.00  0.00     0.050 A 
HETATM   14  C   UNL     1      63.717   8.573   4.189  1.00  0.00     0.009 A 
HETATM   15  C   UNL     1      64.711   8.532   5.183  1.00  0.00     0.023 A 
ENDBRANCH   9  11
ENDBRANCH   2   9
TORSDOF 2
ENDMDL
MODEL 4
REMARK VINA RESULT:      -4.0      2.888      5.298
REMARK  2 active torsions:
REMARK  status: ('A' for Active; 'I' for Inactive)
REMARK    1  A    between atoms: C_1  and  C_2 
REMARK    2  A    between atoms: C_2  and  C_9 
ROOT
HETATM    1  N   UNL     1      62.295   6.513   5.948  1.00  0.00    -0.075 N 
HETATM    2  C   UNL     1      64.966   7.321   5.030  1.00  0.00     0.064 C 
HETATM    3  C   UNL     1      62.682   7.929   6.020  1.00  0.00     0.233 C 
HETATM    4  C   UNL     1      63.448   5.645   6.212  1.00  0.00     0.233 C 
HETATM    5  C   UNL     1      63.728   8.246   4.937  1.00  0.00     0.040 C 
HETATM    6  C   UNL     1      64.510   5.854   5.125  1.00  0.00     0.040 C 
HETATM    7  H   UNL     1      61.930   6.313   5.017  1.00  0.00     0.277 HD
HETATM    8  H   UNL     1      61.580   6.333   6.653  1.00  0.00     0.277 HD
ENDROOT
BRANCH   2   9
HETATM    9  C   UNL     1      65.939   7.708   6.144  1.00  0.00     0.170 C 
HETATM   10  O   UNL     1      66.142   8.878   6.415  1.00  0.00    -0.291 OA
BRANCH   9  11
HETATM   11  C   UNL     1      66.614   6.645   6.949  1.00  0.00     0.051 A 
HETATM   12  S   UNL     1      66.338   6.315   8.584  1.00  0.00    -0.098 SA
HETATM   13  C   UNL     1      67.461   5.082   8.738  1.00  0.00     0.050 A 
HETATM   14  C   UNL     1      68.074   4.900   7.507  1.00  0.00     0.009 A 
HETATM   15  C   UNL     1      67.604   5.769   6.506  1.00  0.00     0.023 A 
ENDBRANCH   9  11
ENDBRANCH   2   9
TORSDOF 2
ENDMDL
MODEL 5
REMARK VINA RESULT:      -4.0      2.848      5.176
REMARK  2 active torsions:
REMARK  status: ('A' for Active; 'I' for Inactive)
REMARK    1  A    between atoms: C_1  and  C_2 
REMARK    2  A    between atoms: C_2  and  C_9 
ROOT
HETATM    1  N   UNL     1      63.144   7.557   2.788  1.00  0.00    -0.075 N 
HETATM    2  C   UNL     1      63.799   7.398   5.647  1.00  0.00     0.064 C 
HETATM    3  C   UNL     1      64.157   6.594   3.241  1.00  0.00     0.233 C 
HETATM    4  C   UNL     1      63.196   8.785   3.591  1.00  0.00     0.233 C 
HETATM    5  C   UNL     1      63.878   6.179   4.696  1.00  0.00     0.040 C 
HETATM    6  C   UNL     1      62.855   8.459   5.051  1.00  0.00     0.040 C 
HETATM    7  H   UNL     1      62.219   7.137   2.878  1.00  0.00     0.277 HD
HETATM    8  H   UNL     1      63.330   7.795   1.813  1.00  0.00     0.277 HD
ENDROOT
BRANCH   2   9
HETATM    9  C   UNL     1      65.164   7.971   6.027  1.00  0.00     0.170 C 
HETATM   10  O   UNL     1      65.429   9.141   5.819  1.00  0.00    -0.291 OA
BRANCH   9  11
HETATM   11  C   UNL     1      66.175   7.103   6.706  1.00  0.00     0.051 A 
HETATM   12  S   UNL     1      67.488   6.344   5.961  1.00  0.00    -0.098 SA
HETATM   13  C   UNL     1      68.074   5.563   7.323  1.00  0.00     0.050 A 
HETATM   14  C   UNL     1      67.253   5.887   8.393  1.00  0.00     0.009 A 
HETATM   15  C   UNL     1      66.193   6.747   8.053  1.00  0.00     0.023 A 
ENDBRANCH   9  11
ENDBRANCH   2   9
TORSDOF 2
ENDMDL
MODEL 6
REMARK VINA RESULT:      -4.0      2.803      4.945
REMARK  2 active torsions:
REMARK  status: ('A' for Active; 'I' for Inactive)
REMARK    1  A    between atoms: C_1  and  C_2 
REMARK    2  A    between atoms: C_2  and  C_9 
ROOT
HETATM    1  N   UNL     1      62.162   8.667   1.789  1.00  0.00    -0.075 N 
HETATM    2  C   UNL     1      62.527   8.469   4.698  1.00  0.00     0.064 C 
HETATM    3  C   UNL     1      63.001   7.592   2.337  1.00  0.00     0.233 C 
HETATM    4  C   UNL     1      62.294   9.890   2.591  1.00  0.00     0.233 C 
HETATM    5  C   UNL     1      62.541   7.236   3.761  1.00  0.00     0.040 C 
HETATM    6  C   UNL     1      61.782   9.630   4.014  1.00  0.00     0.040 C 
HETATM    7  H   UNL     1      61.187   8.366   1.795  1.00  0.00     0.277 HD
HETATM    8  H   UNL     1      62.465   8.865   0.836  1.00  0.00     0.277 HD
ENDROOT
BRANCH   2   9
HETATM    9  C   UNL     1      63.913   8.873   5.200  1.00  0.00     0.170 C 
HETATM   10  O   UNL     1      64.165  10.034   5.467  1.00  0.00    -0.291 OA
BRANCH   9  11
HETATM   11  C   UNL     1      64.962   7.831   5.418  1.00  0.00     0.051 A 
HETATM   12  S   UNL     1      64.943   6.642   6.620  1.00  0.00    -0.098 SA
HETATM   13  C   UNL     1      66.416   5.941   6.240  1.00  0.00     0.050 A 
HETATM   14  C   UNL     1      66.952   6.623   5.158  1.00  0.00     0.009 A 
HETATM   15  C   UNL     1      66.144   7.677   4.695  1.00  0.00     0.023 A 
ENDBRANCH   9  11
ENDBRANCH   2   9
TORSDOF 2
ENDMDL
MODEL 7
REMARK VINA RESULT:      -4.0      1.761      2.378
REMARK  2 active torsions:
REMARK  status: ('A' for Active; 'I' for Inactive)
REMARK    1  A    between atoms: C_1  and  C_2 
REMARK    2  A    between atoms: C_2  and  C_9 
ROOT
HETATM    1  N   UNL     1      67.016   4.750   6.983  1.00  0.00    -0.075 N 
HETATM    2  C   UNL     1      65.411   7.209   6.878  1.00  0.00     0.064 C 
HETATM    3  C   UNL     1      67.688   6.053   7.094  1.00  0.00     0.233 C 
HETATM    4  C   UNL     1      65.870   4.833   6.069  1.00  0.00     0.233 C 
HETATM    5  C   UNL     1      66.724   7.094   7.689  1.00  0.00     0.040 C 
HETATM    6  C   UNL     1      64.827   5.805   6.636  1.00  0.00     0.040 C 
HETATM    7  H   UNL     1      66.689   4.462   7.905  1.00  0.00     0.277 HD
HETATM    8  H   UNL     1      67.681   4.070   6.615  1.00  0.00     0.277 HD
ENDROOT
BRANCH   2   9
HETATM    9  C   UNL     1      65.555   8.016   5.588  1.00  0.00     0.170 C 
HETATM   10  O   UNL     1      66.650   8.387   5.204  1.00  0.00    -0.291 OA
BRANCH   9  11
HETATM   11  C   UNL     1      64.350   8.316   4.756  1.00  0.00     0.051 A 
HETATM   12  S   UNL     1      63.200   9.514   5.074  1.00  0.00    -0.098 SA
HETATM   13  C   UNL     1      62.199   9.189   3.771  1.00  0.00     0.050 A 
HETATM   14  C   UNL     1      62.748   8.136   3.056  1.00  0.00     0.009 A 
HETATM   15  C   UNL     1      63.949   7.646   3.601  1.00  0.00     0.023 A 
ENDBRANCH   9  11
ENDBRANCH   2   9
TORSDOF 2
ENDMDL
MODEL 8
REMARK VINA RESULT:      -3.9      3.391      4.721
REMARK  2 active torsions:
REMARK  status: ('A' for Active; 'I' for Inactive)
REMARK    1  A    between atoms: C_1  and  C_2 
REMARK    2  A    between atoms: C_2  and  C_9 
ROOT
HETATM    1  N   UNL     1      62.141  10.669   3.891  1.00  0.00    -0.075 N 
HETATM    2  C   UNL     1      63.384   8.135   4.708  1.00  0.00     0.064 C 
HETATM    3  C   UNL     1      62.809  10.584   5.197  1.00  0.00     0.233 C 
HETATM    4  C   UNL     1      61.488   9.397   3.557  1.00  0.00     0.233 C 
HETATM    5  C   UNL     1      63.918   9.518   5.155  1.00  0.00     0.040 C 
HETATM    6  C   UNL     1      62.546   8.294   3.426  1.00  0.00     0.040 C 
HETATM    7  H   UNL     1      62.833  10.888   3.175  1.00  0.00     0.277 HD
HETATM    8  H   UNL     1      61.432  11.401   3.933  1.00  0.00     0.277 HD
ENDROOT
BRANCH   2   9
HETATM    9  C   UNL     1      62.640   7.380   5.808  1.00  0.00     0.170 C 
HETATM   10  O   UNL     1      62.706   7.744   6.968  1.00  0.00    -0.291 OA
BRANCH   9  11
HETATM   11  C   UNL     1      61.778   6.209   5.459  1.00  0.00     0.051 A 
HETATM   12  S   UNL     1      62.321   4.725   4.856  1.00  0.00    -0.098 SA
HETATM   13  C   UNL     1      60.816   4.009   4.688  1.00  0.00     0.050 A 
HETATM   14  C   UNL     1      59.856   4.918   5.107  1.00  0.00     0.009 A 
HETATM   15  C   UNL     1      60.389   6.146   5.538  1.00  0.00     0.023 A 
ENDBRANCH   9  11
ENDBRANCH   2   9
TORSDOF 2
ENDMDL
MODEL 9
REMARK VINA RESULT:      -3.9      2.074      2.746
REMARK  2 active torsions:
REMARK  status: ('A' for Active; 'I' for Inactive)
REMARK    1  A    between atoms: C_1  and  C_2 
REMARK    2  A    between atoms: C_2  and  C_9 
ROOT
HETATM    1  N   UNL     1      63.708   4.527   5.618  1.00  0.00    -0.075 N 
HETATM    2  C   UNL     1      64.102   7.320   6.439  1.00  0.00     0.064 C 
HETATM    3  C   UNL     1      65.072   5.068   5.694  1.00  0.00     0.233 C 
HETATM    4  C   UNL     1      62.764   5.558   5.168  1.00  0.00     0.233 C 
HETATM    5  C   UNL     1      65.133   6.203   6.732  1.00  0.00     0.040 C 
HETATM    6  C   UNL     1      62.716   6.696   6.196  1.00  0.00     0.040 C 
HETATM    7  H   UNL     1      63.427   4.195   6.540  1.00  0.00     0.277 HD
HETATM    8  H   UNL     1      63.698   3.758   4.947  1.00  0.00     0.277 HD
ENDROOT
BRANCH   2   9
HETATM    9  C   UNL     1      64.526   8.267   5.316  1.00  0.00     0.170 C 
HETATM   10  O   UNL     1      65.686   8.319   4.950  1.00  0.00    -0.291 OA
BRANCH   9  11
HETATM   11  C   UNL     1      63.503   9.106   4.620  1.00  0.00     0.051 A 
HETATM   12  S   UNL     1      62.807   8.773   3.116  1.00  0.00    -0.098 SA
HETATM   13  C   UNL     1      61.848  10.144   3.025  1.00  0.00     0.050 A 
HETATM   14  C   UNL     1      62.051  10.890   4.177  1.00  0.00     0.009 A 
HETATM   15  C   UNL     1      62.973  10.314   5.069  1.00  0.00     0.023 A 
ENDBRANCH   9  11
ENDBRANCH   2   9
TORSDOF 2
ENDMDL
