MODEL 1
REMARK VINA RESULT:      -5.9      0.000      0.000
REMARK  1 active torsions:
REMARK  status: ('A' for Active; 'I' for Inactive)
REMARK    1  A    between atoms: C_8  and  N_9 
ROOT
HETATM    1  C   UNL     1      65.016   7.634   4.460  1.00  0.00    -0.015 A 
HETATM    2  C   UNL     1      65.576   8.254   5.554  1.00  0.00     0.061 A 
HETATM    3  C   UNL     1      63.878   8.401   4.116  1.00  0.00     0.009 A 
HETATM    4  O   UNL     1      64.882   9.361   5.913  1.00  0.00    -0.314 OA
HETATM    5  C   UNL     1      63.841   9.454   5.030  1.00  0.00     0.086 A 
HETATM    6  C   UNL     1      62.884   8.331   3.127  1.00  0.00     0.043 A 
HETATM    7  C   UNL     1      62.875  10.456   5.008  1.00  0.00     0.040 A 
HETATM    8  C   UNL     1      61.860   9.289   3.105  1.00  0.00     0.026 A 
HETATM    9  C   UNL     1      61.897  10.359   4.007  1.00  0.00     0.032 A 
HETATM   10  C   UNL     1      65.582   6.397   3.870  1.00  0.00     0.042 C 
HETATM   11  C   UNL     1      66.802   7.858   6.283  1.00  0.00     0.066 C 
HETATM   12  C   UNL     1      67.027   6.168   4.364  1.00  0.00     0.005 C 
HETATM   13  C   UNL     1      67.170   6.412   5.882  1.00  0.00     0.007 C 
ENDROOT
BRANCH   8  14
HETATM   14  N   UNL     1      60.945   9.295   2.041  1.00  0.00    -0.399 N 
HETATM   15  H   UNL     1      61.142   9.810   1.225  1.00  0.00     0.156 HD
HETATM   16  H   UNL     1      60.106   8.785   2.110  1.00  0.00     0.156 HD
ENDBRANCH   8  14
TORSDOF 1
ENDMDL
MODEL 2
REMARK VINA RESULT:      -5.7      2.188      4.779
REMARK  1 active torsions:
REMARK  status: ('A' for Active; 'I' for Inactive)
REMARK    1  A    between atoms: C_8  and  N_9 
ROOT
HETATM    1  C   UNL     1      63.961   8.355   4.141  1.00  0.00    -0.015 A 
HETATM    2  C   UNL     1      63.981   9.361   5.082  1.00  0.00     0.061 A 
HETATM    3  C   UNL     1      65.137   7.599   4.352  1.00  0.00     0.009 A 
HETATM    4  O   UNL     1      65.077   9.282   5.875  1.00  0.00    -0.314 OA
HETATM    5  C   UNL     1      65.786   8.200   5.429  1.00  0.00     0.086 A 
HETATM    6  C   UNL     1      65.719   6.467   3.760  1.00  0.00     0.043 A 
HETATM    7  C   UNL     1      66.980   7.729   5.967  1.00  0.00     0.040 A 
HETATM    8  C   UNL     1      66.951   5.992   4.235  1.00  0.00     0.026 A 
HETATM    9  C   UNL     1      67.536   6.595   5.356  1.00  0.00     0.032 A 
HETATM   10  C   UNL     1      62.868   8.219   3.146  1.00  0.00     0.042 C 
HETATM   11  C   UNL     1      62.960  10.410   5.299  1.00  0.00     0.066 C 
HETATM   12  C   UNL     1      61.640   9.052   3.567  1.00  0.00     0.005 C 
HETATM   13  C   UNL     1      62.032  10.461   4.065  1.00  0.00     0.007 C 
ENDROOT
BRANCH   8  14
HETATM   14  N   UNL     1      67.466   4.788   3.733  1.00  0.00    -0.399 N 
HETATM   15  H   UNL     1      66.858   4.113   3.352  1.00  0.00     0.156 HD
HETATM   16  H   UNL     1      68.434   4.617   3.761  1.00  0.00     0.156 HD
ENDBRANCH   8  14
TORSDOF 1
ENDMDL
MODEL 3
REMARK VINA RESULT:      -5.2      2.660      5.324
REMARK  1 active torsions:
REMARK  status: ('A' for Active; 'I' for Inactive)
REMARK    1  A    between atoms: C_8  and  N_9 
ROOT
HETATM    1  C   UNL     1      63.950   8.758   4.662  1.00  0.00    -0.015 A 
HETATM    2  C   UNL     1      63.408   8.242   3.505  1.00  0.00     0.061 A 
HETATM    3  C   UNL     1      65.060   7.939   4.972  1.00  0.00     0.009 A 
HETATM    4  O   UNL     1      64.106   7.169   3.061  1.00  0.00    -0.314 OA
HETATM    5  C   UNL     1      65.121   6.983   3.959  1.00  0.00     0.086 A 
HETATM    6  C   UNL     1      66.028   7.907   5.989  1.00  0.00     0.043 A 
HETATM    7  C   UNL     1      66.103   6.000   3.889  1.00  0.00     0.040 A 
HETATM    8  C   UNL     1      67.002   6.899   5.987  1.00  0.00     0.026 A 
HETATM    9  C   UNL     1      67.058   5.996   4.917  1.00  0.00     0.032 A 
HETATM   10  C   UNL     1      63.370   9.934   5.356  1.00  0.00     0.042 C 
HETATM   11  C   UNL     1      62.242   8.754   2.752  1.00  0.00     0.066 C 
HETATM   12  C   UNL     1      62.400  10.693   4.426  1.00  0.00     0.005 C 
HETATM   13  C   UNL     1      61.464   9.738   3.654  1.00  0.00     0.007 C 
ENDROOT
BRANCH   8  14
HETATM   14  N   UNL     1      68.044   6.945   6.925  1.00  0.00    -0.399 N 
HETATM   15  H   UNL     1      67.839   6.948   7.889  1.00  0.00     0.156 HD
HETATM   16  H   UNL     1      68.980   6.974   6.622  1.00  0.00     0.156 HD
ENDBRANCH   8  14
TORSDOF 1
ENDMDL
MODEL 4
REMARK VINA RESULT:      -4.7      3.029      5.165
REMARK  1 active torsions:
REMARK  status: ('A' for Active; 'I' for Inactive)
REMARK    1  A    between atoms: C_8  and  N_9 
ROOT
HETATM    1  C   UNL     1      63.532   7.239   5.304  1.00  0.00    -0.015 A 
HETATM    2  C   UNL     1      63.828   8.522   4.901  1.00  0.00     0.061 A 
HETATM    3  C   UNL     1      64.609   6.828   6.124  1.00  0.00     0.009 A 
HETATM    4  O   UNL     1      65.005   8.950   5.420  1.00  0.00    -0.314 OA
HETATM    5  C   UNL     1      65.484   7.912   6.172  1.00  0.00     0.086 A 
HETATM    6  C   UNL     1      64.935   5.665   6.840  1.00  0.00     0.043 A 
HETATM    7  C   UNL     1      66.664   7.915   6.908  1.00  0.00     0.040 A 
HETATM    8  C   UNL     1      66.143   5.605   7.550  1.00  0.00     0.026 A 
HETATM    9  C   UNL     1      66.962   6.740   7.616  1.00  0.00     0.032 A 
HETATM   10  C   UNL     1      62.300   6.534   4.872  1.00  0.00     0.042 C 
HETATM   11  C   UNL     1      63.007   9.409   4.048  1.00  0.00     0.066 C 
HETATM   12  C   UNL     1      61.274   7.533   4.295  1.00  0.00     0.005 C 
HETATM   13  C   UNL     1      61.928   8.558   3.344  1.00  0.00     0.007 C 
ENDROOT
BRANCH   8  14
HETATM   14  N   UNL     1      66.406   4.498   8.370  1.00  0.00    -0.399 N 
HETATM   15  H   UNL     1      65.708   4.156   8.975  1.00  0.00     0.156 HD
HETATM   16  H   UNL     1      67.288   4.063   8.342  1.00  0.00     0.156 HD
ENDBRANCH   8  14
TORSDOF 1
ENDMDL
MODEL 5
REMARK VINA RESULT:      -4.5      1.823      2.395
REMARK  1 active torsions:
REMARK  status: ('A' for Active; 'I' for Inactive)
REMARK    1  A    between atoms: C_8  and  N_9 
ROOT
HETATM    1  C   UNL     1      64.512   7.630   5.494  1.00  0.00    -0.015 A 
HETATM    2  C   UNL     1      64.184   6.387   5.990  1.00  0.00     0.061 A 
HETATM    3  C   UNL     1      63.381   8.074   4.771  1.00  0.00     0.009 A 
HETATM    4  O   UNL     1      62.924   6.028   5.643  1.00  0.00    -0.314 OA
HETATM    5  C   UNL     1      62.430   7.062   4.896  1.00  0.00     0.086 A 
HETATM    6  C   UNL     1      63.050   9.224   4.036  1.00  0.00     0.043 A 
HETATM    7  C   UNL     1      61.155   7.133   4.343  1.00  0.00     0.040 A 
HETATM    8  C   UNL     1      61.796   9.311   3.414  1.00  0.00     0.026 A 
HETATM    9  C   UNL     1      60.853   8.295   3.616  1.00  0.00     0.032 A 
HETATM   10  C   UNL     1      65.838   8.255   5.729  1.00  0.00     0.042 C 
HETATM   11  C   UNL     1      65.019   5.507   6.837  1.00  0.00     0.066 C 
HETATM   12  C   UNL     1      66.579   7.545   6.881  1.00  0.00     0.005 C 
HETATM   13  C   UNL     1      66.479   6.007   6.780  1.00  0.00     0.007 C 
ENDROOT
BRANCH   8  14
HETATM   14  N   UNL     1      61.417  10.511   2.793  1.00  0.00    -0.399 N 
HETATM   15  H   UNL     1      61.728  10.713   1.880  1.00  0.00     0.156 HD
HETATM   16  H   UNL     1      60.842  11.152   3.269  1.00  0.00     0.156 HD
ENDBRANCH   8  14
TORSDOF 1
ENDMDL
MODEL 6
REMARK VINA RESULT:      -4.3      1.751      2.842
REMARK  1 active torsions:
REMARK  status: ('A' for Active; 'I' for Inactive)
REMARK    1  A    between atoms: C_8  and  N_9 
ROOT
HETATM    1  C   UNL     1      65.063   7.496   4.430  1.00  0.00    -0.015 A 
HETATM    2  C   UNL     1      65.829   6.446   3.974  1.00  0.00     0.061 A 
HETATM    3  C   UNL     1      63.899   7.509   3.628  1.00  0.00     0.009 A 
HETATM    4  O   UNL     1      65.222   5.791   2.954  1.00  0.00    -0.314 OA
HETATM    5  C   UNL     1      64.038   6.442   2.742  1.00  0.00     0.086 A 
HETATM    6  C   UNL     1      62.738   8.296   3.560  1.00  0.00     0.043 A 
HETATM    7  C   UNL     1      63.076   6.098   1.796  1.00  0.00     0.040 A 
HETATM    8  C   UNL     1      61.770   8.019   2.584  1.00  0.00     0.026 A 
HETATM    9  C   UNL     1      61.926   6.901   1.754  1.00  0.00     0.032 A 
HETATM   10  C   UNL     1      65.503   8.377   5.541  1.00  0.00     0.042 C 
HETATM   11  C   UNL     1      67.136   5.992   4.497  1.00  0.00     0.066 C 
HETATM   12  C   UNL     1      66.659   7.726   6.328  1.00  0.00     0.005 C 
HETATM   13  C   UNL     1      67.722   7.102   5.397  1.00  0.00     0.007 C 
ENDROOT
BRANCH   8  14
HETATM   14  N   UNL     1      60.554   8.719   2.601  1.00  0.00    -0.399 N 
HETATM   15  H   UNL     1      60.550   9.701   2.536  1.00  0.00     0.156 HD
HETATM   16  H   UNL     1      59.704   8.228   2.679  1.00  0.00     0.156 HD
ENDBRANCH   8  14
TORSDOF 1
ENDMDL
MODEL 7
REMARK VINA RESULT:      -4.2      2.916      4.995
REMARK  1 active torsions:
REMARK  status: ('A' for Active; 'I' for Inactive)
REMARK    1  A    between atoms: C_8  and  N_9 
ROOT
HETATM    1  C   UNL     1      61.997   7.381   2.434  1.00  0.00    -0.015 A 
HETATM    2  C   UNL     1      60.983   8.203   1.996  1.00  0.00     0.061 A 
HETATM    3  C   UNL     1      62.704   8.117   3.413  1.00  0.00     0.009 A 
HETATM    4  O   UNL     1      60.994   9.396   2.639  1.00  0.00    -0.314 OA
HETATM    5  C   UNL     1      62.048   9.344   3.510  1.00  0.00     0.086 A 
HETATM    6  C   UNL     1      63.816   7.880   4.236  1.00  0.00     0.043 A 
HETATM    7  C   UNL     1      62.426  10.349   4.395  1.00  0.00     0.040 A 
HETATM    8  C   UNL     1      64.264   8.887   5.103  1.00  0.00     0.026 A 
HETATM    9  C   UNL     1      63.539  10.081   5.207  1.00  0.00     0.032 A 
HETATM   10  C   UNL     1      62.209   6.018   1.886  1.00  0.00     0.042 C 
HETATM   11  C   UNL     1      59.945   7.893   0.988  1.00  0.00     0.066 C 
HETATM   12  C   UNL     1      60.958   5.539   1.118  1.00  0.00     0.005 C 
HETATM   13  C   UNL     1      60.380   6.638   0.200  1.00  0.00     0.007 C 
ENDROOT
BRANCH   8  14
HETATM   14  N   UNL     1      65.290   8.604   6.017  1.00  0.00    -0.399 N 
HETATM   15  H   UNL     1      65.165   8.799   6.974  1.00  0.00     0.156 HD
HETATM   16  H   UNL     1      66.136   8.210   5.702  1.00  0.00     0.156 HD
ENDBRANCH   8  14
TORSDOF 1
ENDMDL
MODEL 8
REMARK VINA RESULT:      -4.1      3.214      5.471
REMARK  1 active torsions:
REMARK  status: ('A' for Active; 'I' for Inactive)
REMARK    1  A    between atoms: C_8  and  N_9 
ROOT
HETATM    1  C   UNL     1      63.567   7.779   5.107  1.00  0.00    -0.015 A 
HETATM    2  C   UNL     1      62.577   6.855   4.852  1.00  0.00     0.061 A 
HETATM    3  C   UNL     1      64.509   7.125   5.933  1.00  0.00     0.009 A 
HETATM    4  O   UNL     1      62.839   5.666   5.446  1.00  0.00    -0.314 OA
HETATM    5  C   UNL     1      64.025   5.829   6.108  1.00  0.00     0.086 A 
HETATM    6  C   UNL     1      65.725   7.479   6.541  1.00  0.00     0.043 A 
HETATM    7  C   UNL     1      64.689   4.854   6.845  1.00  0.00     0.040 A 
HETATM    8  C   UNL     1      66.399   6.542   7.339  1.00  0.00     0.026 A 
HETATM    9  C   UNL     1      65.902   5.236   7.438  1.00  0.00     0.032 A 
HETATM   10  C   UNL     1      63.519   9.163   4.574  1.00  0.00     0.042 C 
HETATM   11  C   UNL     1      61.371   7.037   4.014  1.00  0.00     0.066 C 
HETATM   12  C   UNL     1      62.489   9.272   3.429  1.00  0.00     0.005 C 
HETATM   13  C   UNL     1      61.167   8.547   3.762  1.00  0.00     0.007 C 
ENDROOT
BRANCH   8  14
HETATM   14  N   UNL     1      67.673   6.852   7.836  1.00  0.00    -0.399 N 
HETATM   15  H   UNL     1      67.773   7.518   8.555  1.00  0.00     0.156 HD
HETATM   16  H   UNL     1      68.468   6.404   7.467  1.00  0.00     0.156 HD
ENDBRANCH   8  14
TORSDOF 1
ENDMDL
MODEL 9
REMARK VINA RESULT:      -4.1      3.429      5.233
REMARK  1 active torsions:
REMARK  status: ('A' for Active; 'I' for Inactive)
REMARK    1  A    between atoms: C_8  and  N_9 
ROOT
HETATM    1  C   UNL     1      62.937   6.608   5.838  1.00  0.00    -0.015 A 
HETATM    2  C   UNL     1      62.671   7.302   4.679  1.00  0.00     0.061 A 
HETATM    3  C   UNL     1      64.271   6.922   6.184  1.00  0.00     0.009 A 
HETATM    4  O   UNL     1      63.737   8.039   4.281  1.00  0.00    -0.314 OA
HETATM    5  C   UNL     1      64.719   7.807   5.205  1.00  0.00     0.086 A 
HETATM    6  C   UNL     1      65.147   6.566   7.223  1.00  0.00     0.043 A 
HETATM    7  C   UNL     1      65.989   8.376   5.205  1.00  0.00     0.040 A 
HETATM    8  C   UNL     1      66.455   7.073   7.230  1.00  0.00     0.026 A 
HETATM    9  C   UNL     1      66.840   8.004   6.257  1.00  0.00     0.032 A 
HETATM   10  C   UNL     1      61.936   5.723   6.483  1.00  0.00     0.042 C 
HETATM   11  C   UNL     1      61.401   7.333   3.920  1.00  0.00     0.066 C 
HETATM   12  C   UNL     1      60.521   6.009   5.935  1.00  0.00     0.005 C 
HETATM   13  C   UNL     1      60.510   6.165   4.399  1.00  0.00     0.007 C 
ENDROOT
BRANCH   8  14
HETATM   14  N   UNL     1      67.284   6.823   8.334  1.00  0.00    -0.399 N 
HETATM   15  H   UNL     1      67.126   7.294   9.185  1.00  0.00     0.156 HD
HETATM   16  H   UNL     1      68.024   6.179   8.259  1.00  0.00     0.156 HD
ENDBRANCH   8  14
TORSDOF 1
ENDMDL
