MODEL 1
REMARK VINA RESULT:      -4.4      0.000      0.000
REMARK  0 active torsions:
REMARK  status: ('A' for Active; 'I' for Inactive)
ROOT
HETATM    1  N   UNL     1      63.091  11.088   6.261  1.00  0.00    -0.190 NA
HETATM    2  C   UNL     1      62.604  10.034   3.939  1.00  0.00     0.152 A 
HETATM    3  C   UNL     1      62.878  10.611   5.223  1.00  0.00     0.121 C 
HETATM    4  N   UNL     1      62.934   8.721   3.787  1.00  0.00    -0.355 N 
ATOM      5  HN  UNL     1      63.361   8.185   4.543  1.00  0.00     0.166 HD
HETATM    6  C   UNL     1      62.026  10.793   2.933  1.00  0.00     0.153 A 
HETATM    7  F   UNL     1      61.717  12.083   3.115  1.00  0.00    -0.203 F 
HETATM    8  C   UNL     1      62.665   8.164   2.584  1.00  0.00     0.089 A 
HETATM    9  C   UNL     1      61.761  10.193   1.708  1.00  0.00     0.047 A 
HETATM   10  C   UNL     1      62.084   8.850   1.528  1.00  0.00     0.020 A 
ENDROOT
TORSDOF 0
ENDMDL
MODEL 2
REMARK VINA RESULT:      -4.2      1.843      2.235
REMARK  0 active torsions:
REMARK  status: ('A' for Active; 'I' for Inactive)
ROOT
HETATM    1  N   UNL     1      63.167  11.321   6.487  1.00  0.00    -0.190 NA
HETATM    2  C   UNL     1      62.527  10.519   4.102  1.00  0.00     0.152 A 
HETATM    3  C   UNL     1      62.876  10.967   5.418  1.00  0.00     0.121 C 
HETATM    4  N   UNL     1      61.982  11.452   3.274  1.00  0.00    -0.355 N 
ATOM      5  HN  UNL     1      61.822  12.413   3.580  1.00  0.00     0.166 HD
HETATM    6  C   UNL     1      62.755   9.206   3.720  1.00  0.00     0.153 A 
HETATM    7  F   UNL     1      63.292   8.312   4.561  1.00  0.00    -0.203 F 
HETATM    8  C   UNL     1      61.664  11.043   2.024  1.00  0.00     0.089 A 
HETATM    9  C   UNL     1      62.420   8.815   2.430  1.00  0.00     0.047 A 
HETATM   10  C   UNL     1      61.864   9.751   1.561  1.00  0.00     0.020 A 
ENDROOT
TORSDOF 0
ENDMDL
MODEL 3
REMARK VINA RESULT:      -4.2      1.534      1.877
REMARK  0 active torsions:
REMARK  status: ('A' for Active; 'I' for Inactive)
ROOT
HETATM    1  N   UNL     1      63.102   8.023   6.416  1.00  0.00    -0.190 NA
HETATM    2  C   UNL     1      62.500   9.318   4.248  1.00  0.00     0.152 A 
HETATM    3  C   UNL     1      62.836   8.597   5.441  1.00  0.00     0.121 C 
HETATM    4  N   UNL     1      62.390   8.579   3.110  1.00  0.00    -0.355 N 
ATOM      5  HN  UNL     1      62.549   7.571   3.108  1.00  0.00     0.166 HD
HETATM    6  C   UNL     1      62.295  10.689   4.286  1.00  0.00     0.153 A 
HETATM    7  F   UNL     1      62.413  11.387   5.423  1.00  0.00    -0.203 F 
HETATM    8  C   UNL     1      62.060   9.248   1.981  1.00  0.00     0.089 A 
HETATM    9  C   UNL     1      61.954  11.349   3.111  1.00  0.00     0.047 A 
HETATM   10  C   UNL     1      61.832  10.616   1.934  1.00  0.00     0.020 A 
ENDROOT
TORSDOF 0
ENDMDL
MODEL 4
REMARK VINA RESULT:      -4.0      2.090      2.527
REMARK  0 active torsions:
REMARK  status: ('A' for Active; 'I' for Inactive)
ROOT
HETATM    1  N   UNL     1      61.983  11.847   4.198  1.00  0.00    -0.190 NA
HETATM    2  C   UNL     1      61.996   9.692   2.751  1.00  0.00     0.152 A 
HETATM    3  C   UNL     1      61.982  10.884   3.548  1.00  0.00     0.121 C 
HETATM    4  N   UNL     1      61.119   9.655   1.710  1.00  0.00    -0.355 N 
ATOM      5  HN  UNL     1      60.483  10.429   1.518  1.00  0.00     0.166 HD
HETATM    6  C   UNL     1      62.872   8.658   3.043  1.00  0.00     0.153 A 
HETATM    7  F   UNL     1      63.720   8.726   4.077  1.00  0.00    -0.203 F 
HETATM    8  C   UNL     1      61.135   8.541   0.942  1.00  0.00     0.089 A 
HETATM    9  C   UNL     1      62.867   7.527   2.236  1.00  0.00     0.047 A 
HETATM   10  C   UNL     1      61.983   7.465   1.162  1.00  0.00     0.020 A 
ENDROOT
TORSDOF 0
ENDMDL
MODEL 5
REMARK VINA RESULT:      -3.8      2.102      3.254
REMARK  0 active torsions:
REMARK  status: ('A' for Active; 'I' for Inactive)
ROOT
HETATM    1  N   UNL     1      64.794   6.572   4.537  1.00  0.00    -0.190 NA
HETATM    2  C   UNL     1      63.487   8.813   4.423  1.00  0.00     0.152 A 
HETATM    3  C   UNL     1      64.209   7.576   4.494  1.00  0.00     0.121 C 
HETATM    4  N   UNL     1      63.617   9.646   5.492  1.00  0.00    -0.355 N 
ATOM      5  HN  UNL     1      64.188   9.396   6.300  1.00  0.00     0.166 HD
HETATM    6  C   UNL     1      62.718   9.119   3.311  1.00  0.00     0.153 A 
HETATM    7  F   UNL     1      62.610   8.275   2.277  1.00  0.00    -0.203 F 
HETATM    8  C   UNL     1      62.952  10.822   5.429  1.00  0.00     0.089 A 
HETATM    9  C   UNL     1      62.048  10.336   3.274  1.00  0.00     0.047 A 
HETATM   10  C   UNL     1      62.167  11.208   4.353  1.00  0.00     0.020 A 
ENDROOT
TORSDOF 0
ENDMDL
MODEL 6
REMARK VINA RESULT:      -3.7      1.861      3.386
REMARK  0 active torsions:
REMARK  status: ('A' for Active; 'I' for Inactive)
ROOT
HETATM    1  N   UNL     1      62.716   6.234   1.951  1.00  0.00    -0.190 NA
HETATM    2  C   UNL     1      62.334   8.736   2.528  1.00  0.00     0.152 A 
HETATM    3  C   UNL     1      62.543   7.352   2.216  1.00  0.00     0.121 C 
HETATM    4  N   UNL     1      62.348   9.063   3.849  1.00  0.00    -0.355 N 
ATOM      5  HN  UNL     1      62.488   8.359   4.574  1.00  0.00     0.166 HD
HETATM    6  C   UNL     1      62.144   9.667   1.518  1.00  0.00     0.153 A 
HETATM    7  F   UNL     1      62.133   9.310   0.226  1.00  0.00    -0.203 F 
HETATM    8  C   UNL     1      62.167  10.369   4.153  1.00  0.00     0.089 A 
HETATM    9  C   UNL     1      61.962  11.001   1.860  1.00  0.00     0.047 A 
HETATM   10  C   UNL     1      61.975  11.363   3.204  1.00  0.00     0.020 A 
ENDROOT
TORSDOF 0
ENDMDL
MODEL 7
REMARK VINA RESULT:      -3.5      2.417      3.936
REMARK  0 active torsions:
REMARK  status: ('A' for Active; 'I' for Inactive)
ROOT
HETATM    1  N   UNL     1      62.264   7.375   0.859  1.00  0.00    -0.190 NA
HETATM    2  C   UNL     1      62.437   9.119   2.774  1.00  0.00     0.152 A 
HETATM    3  C   UNL     1      62.340   8.161   1.712  1.00  0.00     0.121 C 
HETATM    4  N   UNL     1      61.753  10.283   2.598  1.00  0.00    -0.355 N 
ATOM      5  HN  UNL     1      61.213  10.464   1.752  1.00  0.00     0.166 HD
HETATM    6  C   UNL     1      63.184   8.842   3.909  1.00  0.00     0.153 A 
HETATM    7  F   UNL     1      63.847   7.686   4.049  1.00  0.00    -0.203 F 
HETATM    8  C   UNL     1      61.826  11.188   3.601  1.00  0.00     0.089 A 
HETATM    9  C   UNL     1      63.239   9.788   4.924  1.00  0.00     0.047 A 
HETATM   10  C   UNL     1      62.546  10.987   4.771  1.00  0.00     0.020 A 
ENDROOT
TORSDOF 0
ENDMDL
MODEL 8
REMARK VINA RESULT:      -3.4      5.431      5.926
REMARK  0 active torsions:
REMARK  status: ('A' for Active; 'I' for Inactive)
ROOT
HETATM    1  N   UNL     1      67.133   6.594   9.207  1.00  0.00    -0.190 NA
HETATM    2  C   UNL     1      66.011   6.986   6.898  1.00  0.00     0.152 A 
HETATM    3  C   UNL     1      66.624   6.767   8.176  1.00  0.00     0.121 C 
HETATM    4  N   UNL     1      64.677   7.259   6.911  1.00  0.00    -0.355 N 
ATOM      5  HN  UNL     1      64.146   7.296   7.781  1.00  0.00     0.166 HD
HETATM    6  C   UNL     1      66.763   6.926   5.735  1.00  0.00     0.153 A 
HETATM    7  F   UNL     1      68.074   6.651   5.758  1.00  0.00    -0.203 F 
HETATM    8  C   UNL     1      64.092   7.482   5.712  1.00  0.00     0.089 A 
HETATM    9  C   UNL     1      66.135   7.160   4.518  1.00  0.00     0.047 A 
HETATM   10  C   UNL     1      64.772   7.446   4.503  1.00  0.00     0.020 A 
ENDROOT
TORSDOF 0
ENDMDL
MODEL 9
REMARK VINA RESULT:      -3.4      4.291      5.074
REMARK  0 active torsions:
REMARK  status: ('A' for Active; 'I' for Inactive)
ROOT
HETATM    1  N   UNL     1      63.003   9.511   4.786  1.00  0.00    -0.190 NA
HETATM    2  C   UNL     1      65.170   8.139   5.189  1.00  0.00     0.152 A 
HETATM    3  C   UNL     1      63.976   8.902   4.971  1.00  0.00     0.121 C 
HETATM    4  N   UNL     1      65.864   8.422   6.326  1.00  0.00    -0.355 N 
ATOM      5  HN  UNL     1      65.554   9.143   6.978  1.00  0.00     0.166 HD
HETATM    6  C   UNL     1      65.563   7.168   4.281  1.00  0.00     0.153 A 
HETATM    7  F   UNL     1      64.857   6.917   3.171  1.00  0.00    -0.203 F 
HETATM    8  C   UNL     1      66.984   7.697   6.549  1.00  0.00     0.089 A 
HETATM    9  C   UNL     1      66.717   6.438   4.537  1.00  0.00     0.047 A 
HETATM   10  C   UNL     1      67.444   6.704   5.695  1.00  0.00     0.020 A 
ENDROOT
TORSDOF 0
ENDMDL
