MODEL 1
REMARK VINA RESULT:      -4.9      0.000      0.000
REMARK  4 active torsions:
REMARK  status: ('A' for Active; 'I' for Inactive)
REMARK    1  A    between atoms: C_1  and  C_2 
REMARK    2  A    between atoms: C_1  and  O_5 
REMARK    3  A    between atoms: C_6  and  C_10 
REMARK    4  A    between atoms: N_7  and  C_10 
ROOT
HETATM    1  C   UNL     1      63.269   9.432   4.785  1.00  0.00     0.040 A 
HETATM    2  C   UNL     1      62.885   8.926   3.532  1.00  0.00     0.026 A 
HETATM    3  C   UNL     1      62.144   9.716   2.638  1.00  0.00    -0.032 A 
HETATM    4  C   UNL     1      62.874  10.730   5.150  1.00  0.00     0.017 A 
HETATM    5  C   UNL     1      62.110  11.507   4.275  1.00  0.00     0.002 A 
HETATM    6  C   UNL     1      61.753  11.008   3.022  1.00  0.00     0.009 A 
ENDROOT
BRANCH   3   7
HETATM    7  C   UNL     1      61.807   9.183   1.272  1.00  0.00     0.268 C 
BRANCH   7   8
HETATM    8  N   UNL     1      60.408   8.768   1.234  1.00  0.00    -0.075 N 
HETATM    9  H   UNL     1      59.809   9.572   1.423  1.00  0.00     0.274 HD
HETATM   10  H   UNL     1      60.246   8.050   1.941  1.00  0.00     0.274 HD
HETATM   11  H   UNL     1      60.189   8.392   0.311  1.00  0.00     0.274 HD
ENDBRANCH   7   8
ENDBRANCH   3   7
BRANCH   1  12
HETATM   12  C   UNL     1      64.130   8.633   5.686  1.00  0.00     0.292 C 
HETATM   13  O   UNL     1      63.686   7.629   6.227  1.00  0.00    -0.259 OA
BRANCH  12  14
HETATM   14  O   UNL     1      65.445   8.950   5.798  1.00  0.00    -0.323 OA
HETATM   15  C   UNL     1      66.424   8.061   6.188  1.00  0.00     0.213 C 
ENDBRANCH  12  14
ENDBRANCH   1  12
TORSDOF 4
ENDMDL
MODEL 2
REMARK VINA RESULT:      -4.7      3.148      4.953
REMARK  4 active torsions:
REMARK  status: ('A' for Active; 'I' for Inactive)
REMARK    1  A    between atoms: C_1  and  C_2 
REMARK    2  A    between atoms: C_1  and  O_5 
REMARK    3  A    between atoms: C_6  and  C_10 
REMARK    4  A    between atoms: N_7  and  C_10 
ROOT
HETATM    1  C   UNL     1      63.531   9.059   4.651  1.00  0.00     0.040 A 
HETATM    2  C   UNL     1      64.727   8.858   5.360  1.00  0.00     0.026 A 
HETATM    3  C   UNL     1      65.573   7.782   5.043  1.00  0.00    -0.032 A 
HETATM    4  C   UNL     1      63.171   8.151   3.641  1.00  0.00     0.017 A 
HETATM    5  C   UNL     1      63.996   7.063   3.344  1.00  0.00     0.002 A 
HETATM    6  C   UNL     1      65.196   6.882   4.035  1.00  0.00     0.009 A 
ENDROOT
BRANCH   3   7
HETATM    7  C   UNL     1      66.886   7.627   5.763  1.00  0.00     0.268 C 
BRANCH   7   8
HETATM    8  N   UNL     1      66.895   8.461   6.961  1.00  0.00    -0.075 N 
HETATM    9  H   UNL     1      67.848   8.536   7.315  1.00  0.00     0.274 HD
HETATM   10  H   UNL     1      66.300   8.038   7.674  1.00  0.00     0.274 HD
HETATM   11  H   UNL     1      66.543   9.390   6.731  1.00  0.00     0.274 HD
ENDBRANCH   7   8
ENDBRANCH   3   7
BRANCH   1  12
HETATM   12  C   UNL     1      62.688  10.245   4.923  1.00  0.00     0.292 C 
HETATM   13  O   UNL     1      62.961  10.992   5.853  1.00  0.00    -0.259 OA
BRANCH  12  14
HETATM   14  O   UNL     1      61.694  10.564   4.054  1.00  0.00    -0.323 OA
HETATM   15  C   UNL     1      61.836  11.455   3.011  1.00  0.00     0.213 C 
ENDBRANCH  12  14
ENDBRANCH   1  12
TORSDOF 4
ENDMDL
MODEL 3
REMARK VINA RESULT:      -4.6      1.542      2.654
REMARK  4 active torsions:
REMARK  status: ('A' for Active; 'I' for Inactive)
REMARK    1  A    between atoms: C_1  and  C_2 
REMARK    2  A    between atoms: C_1  and  O_5 
REMARK    3  A    between atoms: C_6  and  C_10 
REMARK    4  A    between atoms: N_7  and  C_10 
ROOT
HETATM    1  C   UNL     1      64.323   8.264   4.890  1.00  0.00     0.040 A 
HETATM    2  C   UNL     1      63.555   9.433   4.763  1.00  0.00     0.026 A 
HETATM    3  C   UNL     1      62.665   9.590   3.687  1.00  0.00    -0.032 A 
HETATM    4  C   UNL     1      64.217   7.263   3.909  1.00  0.00     0.017 A 
HETATM    5  C   UNL     1      63.356   7.431   2.821  1.00  0.00     0.002 A 
HETATM    6  C   UNL     1      62.576   8.584   2.714  1.00  0.00     0.009 A 
ENDROOT
BRANCH   3   7
HETATM    7  C   UNL     1      61.796  10.817   3.609  1.00  0.00     0.268 C 
BRANCH   7   8
HETATM    8  N   UNL     1      61.535  11.150   2.212  1.00  0.00    -0.075 N 
HETATM    9  H   UNL     1      60.531  11.114   2.036  1.00  0.00     0.274 HD
HETATM   10  H   UNL     1      62.010  10.478   1.608  1.00  0.00     0.274 HD
HETATM   11  H   UNL     1      61.881  12.089   2.016  1.00  0.00     0.274 HD
ENDBRANCH   7   8
ENDBRANCH   3   7
BRANCH   1  12
HETATM   12  C   UNL     1      65.189   8.060   6.073  1.00  0.00     0.292 C 
HETATM   13  O   UNL     1      66.156   8.785   6.258  1.00  0.00    -0.259 OA
BRANCH  12  14
HETATM   14  O   UNL     1      64.822   7.150   7.013  1.00  0.00    -0.323 OA
HETATM   15  C   UNL     1      65.651   6.160   7.495  1.00  0.00     0.213 C 
ENDBRANCH  12  14
ENDBRANCH   1  12
TORSDOF 4
ENDMDL
MODEL 4
REMARK VINA RESULT:      -4.2      3.138      4.775
REMARK  4 active torsions:
REMARK  status: ('A' for Active; 'I' for Inactive)
REMARK    1  A    between atoms: C_1  and  C_2 
REMARK    2  A    between atoms: C_1  and  O_5 
REMARK    3  A    between atoms: C_6  and  C_10 
REMARK    4  A    between atoms: N_7  and  C_10 
ROOT
HETATM    1  C   UNL     1      62.211   9.448   2.727  1.00  0.00     0.040 A 
HETATM    2  C   UNL     1      63.072   8.598   3.441  1.00  0.00     0.026 A 
HETATM    3  C   UNL     1      63.551   8.969   4.709  1.00  0.00    -0.032 A 
HETATM    4  C   UNL     1      61.857  10.690   3.280  1.00  0.00     0.017 A 
HETATM    5  C   UNL     1      62.357  11.074   4.527  1.00  0.00     0.002 A 
HETATM    6  C   UNL     1      63.193  10.215   5.244  1.00  0.00     0.009 A 
ENDROOT
BRANCH   3   7
HETATM    7  C   UNL     1      64.412   8.013   5.490  1.00  0.00     0.268 C 
BRANCH   7   8
HETATM    8  N   UNL     1      65.287   7.279   4.582  1.00  0.00    -0.075 N 
HETATM    9  H   UNL     1      65.326   7.761   3.684  1.00  0.00     0.274 HD
HETATM   10  H   UNL     1      64.922   6.336   4.446  1.00  0.00     0.274 HD
HETATM   11  H   UNL     1      66.224   7.226   4.980  1.00  0.00     0.274 HD
ENDBRANCH   7   8
ENDBRANCH   3   7
BRANCH   1  12
HETATM   12  C   UNL     1      61.632   9.015   1.434  1.00  0.00     0.292 C 
HETATM   13  O   UNL     1      62.318   9.027   0.421  1.00  0.00    -0.259 OA
BRANCH  12  14
HETATM   14  O   UNL     1      60.383   8.485   1.412  1.00  0.00    -0.323 OA
HETATM   15  C   UNL     1      59.806   7.910   0.300  1.00  0.00     0.213 C 
ENDBRANCH  12  14
ENDBRANCH   1  12
TORSDOF 4
ENDMDL
MODEL 5
REMARK VINA RESULT:      -4.2      2.409      3.255
REMARK  4 active torsions:
REMARK  status: ('A' for Active; 'I' for Inactive)
REMARK    1  A    between atoms: C_1  and  C_2 
REMARK    2  A    between atoms: C_1  and  O_5 
REMARK    3  A    between atoms: C_6  and  C_10 
REMARK    4  A    between atoms: N_7  and  C_10 
ROOT
HETATM    1  C   UNL     1      61.820   9.672   3.354  1.00  0.00     0.040 A 
HETATM    2  C   UNL     1      60.978   8.578   3.615  1.00  0.00     0.026 A 
HETATM    3  C   UNL     1      60.519   7.765   2.566  1.00  0.00    -0.032 A 
HETATM    4  C   UNL     1      62.172   9.966   2.026  1.00  0.00     0.017 A 
HETATM    5  C   UNL     1      61.692   9.176   0.978  1.00  0.00     0.002 A 
HETATM    6  C   UNL     1      60.876   8.076   1.245  1.00  0.00     0.009 A 
ENDROOT
BRANCH   3   7
HETATM    7  C   UNL     1      59.679   6.553   2.872  1.00  0.00     0.268 C 
BRANCH   7   8
HETATM    8  N   UNL     1      59.767   6.237   4.294  1.00  0.00    -0.075 N 
HETATM    9  H   UNL     1      60.639   6.608   4.672  1.00  0.00     0.274 HD
HETATM   10  H   UNL     1      59.745   5.225   4.420  1.00  0.00     0.274 HD
HETATM   11  H   UNL     1      58.978   6.658   4.785  1.00  0.00     0.274 HD
ENDBRANCH   7   8
ENDBRANCH   3   7
BRANCH   1  12
HETATM   12  C   UNL     1      62.379  10.471   4.469  1.00  0.00     0.292 C 
HETATM   13  O   UNL     1      62.076  11.651   4.590  1.00  0.00    -0.259 OA
BRANCH  12  14
HETATM   14  O   UNL     1      63.119   9.849   5.422  1.00  0.00    -0.323 OA
HETATM   15  C   UNL     1      64.221   9.065   5.156  1.00  0.00     0.213 C 
ENDBRANCH  12  14
ENDBRANCH   1  12
TORSDOF 4
ENDMDL
MODEL 6
REMARK VINA RESULT:      -4.1      3.554      6.254
REMARK  4 active torsions:
REMARK  status: ('A' for Active; 'I' for Inactive)
REMARK    1  A    between atoms: C_1  and  C_2 
REMARK    2  A    between atoms: C_1  and  O_5 
REMARK    3  A    between atoms: C_6  and  C_10 
REMARK    4  A    between atoms: N_7  and  C_10 
ROOT
HETATM    1  C   UNL     1      65.636   7.752   5.590  1.00  0.00     0.040 A 
HETATM    2  C   UNL     1      65.501   7.078   6.815  1.00  0.00     0.026 A 
HETATM    3  C   UNL     1      66.517   6.225   7.277  1.00  0.00    -0.032 A 
HETATM    4  C   UNL     1      66.786   7.537   4.812  1.00  0.00     0.017 A 
HETATM    5  C   UNL     1      67.784   6.665   5.254  1.00  0.00     0.002 A 
HETATM    6  C   UNL     1      67.656   6.018   6.484  1.00  0.00     0.009 A 
ENDROOT
BRANCH   3   7
HETATM    7  C   UNL     1      66.388   5.571   8.626  1.00  0.00     0.268 C 
BRANCH   7   8
HETATM    8  N   UNL     1      66.488   4.121   8.485  1.00  0.00    -0.075 N 
HETATM    9  H   UNL     1      65.858   3.671   9.148  1.00  0.00     0.274 HD
HETATM   10  H   UNL     1      67.447   3.826   8.673  1.00  0.00     0.274 HD
HETATM   11  H   UNL     1      66.229   3.854   7.535  1.00  0.00     0.274 HD
ENDBRANCH   7   8
ENDBRANCH   3   7
BRANCH   1  12
HETATM   12  C   UNL     1      64.607   8.722   5.150  1.00  0.00     0.292 C 
HETATM   13  O   UNL     1      64.518   9.812   5.699  1.00  0.00    -0.259 OA
BRANCH  12  14
HETATM   14  O   UNL     1      63.860   8.442   4.051  1.00  0.00    -0.323 OA
HETATM   15  C   UNL     1      62.745   9.158   3.672  1.00  0.00     0.213 C 
ENDBRANCH  12  14
ENDBRANCH   1  12
TORSDOF 4
ENDMDL
MODEL 7
REMARK VINA RESULT:      -3.9     11.143     12.368
REMARK  4 active torsions:
REMARK  status: ('A' for Active; 'I' for Inactive)
REMARK    1  A    between atoms: C_1  and  C_2 
REMARK    2  A    between atoms: C_1  and  O_5 
REMARK    3  A    between atoms: C_6  and  C_10 
REMARK    4  A    between atoms: N_7  and  C_10 
ROOT
HETATM    1  C   UNL     1      58.246   2.537  11.568  1.00  0.00     0.040 A 
HETATM    2  C   UNL     1      56.900   2.529  11.972  1.00  0.00     0.026 A 
HETATM    3  C   UNL     1      56.542   2.079  13.254  1.00  0.00    -0.032 A 
HETATM    4  C   UNL     1      59.230   2.059  12.450  1.00  0.00     0.017 A 
HETATM    5  C   UNL     1      58.872   1.582  13.714  1.00  0.00     0.002 A 
HETATM    6  C   UNL     1      57.537   1.599  14.119  1.00  0.00     0.009 A 
ENDROOT
BRANCH   3   7
HETATM    7  C   UNL     1      55.105   2.148  13.695  1.00  0.00     0.268 C 
BRANCH   7   8
HETATM    8  N   UNL     1      54.972   3.089  14.803  1.00  0.00    -0.075 N 
HETATM    9  H   UNL     1      55.335   2.664  15.656  1.00  0.00     0.274 HD
HETATM   10  H   UNL     1      53.987   3.325  14.934  1.00  0.00     0.274 HD
HETATM   11  H   UNL     1      55.500   3.937  14.595  1.00  0.00     0.274 HD
ENDBRANCH   7   8
ENDBRANCH   3   7
BRANCH   1  12
HETATM   12  C   UNL     1      58.631   3.099  10.254  1.00  0.00     0.292 C 
HETATM   13  O   UNL     1      59.053   2.363   9.372  1.00  0.00    -0.259 OA
BRANCH  12  14
HETATM   14  O   UNL     1      58.387   4.410   9.997  1.00  0.00    -0.323 OA
HETATM   15  C   UNL     1      58.847   5.079   8.883  1.00  0.00     0.213 C 
ENDBRANCH  12  14
ENDBRANCH   1  12
TORSDOF 4
ENDMDL
MODEL 8
REMARK VINA RESULT:      -3.9      2.062      2.273
REMARK  4 active torsions:
REMARK  status: ('A' for Active; 'I' for Inactive)
REMARK    1  A    between atoms: C_1  and  C_2 
REMARK    2  A    between atoms: C_1  and  O_5 
REMARK    3  A    between atoms: C_6  and  C_10 
REMARK    4  A    between atoms: N_7  and  C_10 
ROOT
HETATM    1  C   UNL     1      63.630   8.226   4.083  1.00  0.00     0.040 A 
HETATM    2  C   UNL     1      62.932   8.719   2.968  1.00  0.00     0.026 A 
HETATM    3  C   UNL     1      62.283   9.963   3.024  1.00  0.00    -0.032 A 
HETATM    4  C   UNL     1      63.646   8.977   5.270  1.00  0.00     0.017 A 
HETATM    5  C   UNL     1      62.975  10.201   5.339  1.00  0.00     0.002 A 
HETATM    6  C   UNL     1      62.304  10.698   4.220  1.00  0.00     0.009 A 
ENDROOT
BRANCH   3   7
HETATM    7  C   UNL     1      61.604  10.508   1.797  1.00  0.00     0.268 C 
BRANCH   7   8
HETATM    8  N   UNL     1      61.603  11.968   1.839  1.00  0.00    -0.075 N 
HETATM    9  H   UNL     1      61.747  12.280   2.799  1.00  0.00     0.274 HD
HETATM   10  H   UNL     1      60.706  12.317   1.499  1.00  0.00     0.274 HD
HETATM   11  H   UNL     1      62.353  12.326   1.249  1.00  0.00     0.274 HD
ENDBRANCH   7   8
ENDBRANCH   3   7
BRANCH   1  12
HETATM   12  C   UNL     1      64.392   6.959   3.992  1.00  0.00     0.292 C 
HETATM   13  O   UNL     1      64.528   6.402   2.911  1.00  0.00    -0.259 OA
BRANCH  12  14
HETATM   14  O   UNL     1      65.044   6.499   5.090  1.00  0.00    -0.323 OA
HETATM   15  C   UNL     1      64.693   5.355   5.775  1.00  0.00     0.213 C 
ENDBRANCH  12  14
ENDBRANCH   1  12
TORSDOF 4
ENDMDL
MODEL 9
REMARK VINA RESULT:      -3.8      2.318      2.881
REMARK  4 active torsions:
REMARK  status: ('A' for Active; 'I' for Inactive)
REMARK    1  A    between atoms: C_1  and  C_2 
REMARK    2  A    between atoms: C_1  and  O_5 
REMARK    3  A    between atoms: C_6  and  C_10 
REMARK    4  A    between atoms: N_7  and  C_10 
ROOT
HETATM    1  C   UNL     1      64.707   8.094   4.996  1.00  0.00     0.040 A 
HETATM    2  C   UNL     1      64.554   7.128   3.987  1.00  0.00     0.026 A 
HETATM    3  C   UNL     1      63.566   7.277   3.000  1.00  0.00    -0.032 A 
HETATM    4  C   UNL     1      63.838   9.197   5.028  1.00  0.00     0.017 A 
HETATM    5  C   UNL     1      62.834   9.331   4.065  1.00  0.00     0.002 A 
HETATM    6  C   UNL     1      62.702   8.381   3.050  1.00  0.00     0.009 A 
ENDROOT
BRANCH   3   7
HETATM    7  C   UNL     1      63.466   6.271   1.885  1.00  0.00     0.268 C 
BRANCH   7   8
HETATM    8  N   UNL     1      64.447   5.209   2.088  1.00  0.00    -0.075 N 
HETATM    9  H   UNL     1      64.074   4.521   2.741  1.00  0.00     0.274 HD
HETATM   10  H   UNL     1      65.307   5.607   2.468  1.00  0.00     0.274 HD
HETATM   11  H   UNL     1      64.648   4.757   1.196  1.00  0.00     0.274 HD
ENDBRANCH   7   8
ENDBRANCH   3   7
BRANCH   1  12
HETATM   12  C   UNL     1      65.809   7.984   5.979  1.00  0.00     0.292 C 
HETATM   13  O   UNL     1      66.269   8.991   6.500  1.00  0.00    -0.259 OA
BRANCH  12  14
HETATM   14  O   UNL     1      66.208   6.753   6.391  1.00  0.00    -0.323 OA
HETATM   15  C   UNL     1      65.756   6.138   7.540  1.00  0.00     0.213 C 
ENDBRANCH  12  14
ENDBRANCH   1  12
TORSDOF 4
ENDMDL
