MODEL 1
REMARK VINA RESULT:      -4.8      0.000      0.000
REMARK  1 active torsions:
REMARK  status: ('A' for Active; 'I' for Inactive)
REMARK    1  A    between atoms: N_1  and  C_4 
ROOT
HETATM    1  N   UNL     1      67.807   5.500   6.190  1.00  0.00    -0.191 NA
HETATM    2  C   UNL     1      66.926   6.091   5.712  1.00  0.00     0.099 C 
HETATM    3  C   UNL     1      63.657   8.245   4.015  1.00  0.00     0.030 A 
HETATM    4  C   UNL     1      64.418   8.772   5.069  1.00  0.00     0.031 A 
HETATM    5  C   UNL     1      64.038   6.987   3.523  1.00  0.00     0.031 A 
HETATM    6  C   UNL     1      65.837   6.817   5.133  1.00  0.00     0.044 A 
HETATM    7  C   UNL     1      65.117   6.279   4.067  1.00  0.00     0.025 A 
HETATM    8  C   UNL     1      65.490   8.072   5.631  1.00  0.00     0.025 A 
ENDROOT
BRANCH   3   9
HETATM    9  N   UNL     1      62.586   8.931   3.483  1.00  0.00    -0.378 N 
HETATM   10  C   UNL     1      62.201   8.811   2.071  1.00  0.00     0.150 C 
HETATM   11  C   UNL     1      62.229  10.182   1.363  1.00  0.00     0.252 C 
HETATM   12  N   UNL     1      61.457  11.227   2.068  1.00  0.00    -0.072 N 
HETATM   13  C   UNL     1      61.957  11.330   3.456  1.00  0.00     0.252 C 
HETATM   14  H   UNL     1      60.468  10.977   2.076  1.00  0.00     0.277 HD
HETATM   15  H   UNL     1      61.567  12.122   1.591  1.00  0.00     0.277 HD
HETATM   16  C   UNL     1      61.913   9.996   4.241  1.00  0.00     0.150 C 
ENDBRANCH   3   9
TORSDOF 1
ENDMDL
MODEL 2
REMARK VINA RESULT:      -4.7      1.680      5.834
REMARK  1 active torsions:
REMARK  status: ('A' for Active; 'I' for Inactive)
REMARK    1  A    between atoms: N_1  and  C_4 
ROOT
HETATM    1  N   UNL     1      60.595   8.391   1.936  1.00  0.00    -0.191 NA
HETATM    2  C   UNL     1      61.579   8.229   2.534  1.00  0.00     0.099 C 
HETATM    3  C   UNL     1      65.217   7.684   4.697  1.00  0.00     0.030 A 
HETATM    4  C   UNL     1      64.373   8.778   4.939  1.00  0.00     0.031 A 
HETATM    5  C   UNL     1      64.795   6.758   3.730  1.00  0.00     0.031 A 
HETATM    6  C   UNL     1      62.792   8.037   3.267  1.00  0.00     0.044 A 
HETATM    7  C   UNL     1      63.597   6.924   3.024  1.00  0.00     0.025 A 
HETATM    8  C   UNL     1      63.180   8.964   4.234  1.00  0.00     0.025 A 
ENDROOT
BRANCH   3   9
HETATM    9  N   UNL     1      66.403   7.520   5.379  1.00  0.00    -0.378 N 
HETATM   10  C   UNL     1      67.390   6.499   5.004  1.00  0.00     0.150 C 
HETATM   11  C   UNL     1      67.668   5.532   6.174  1.00  0.00     0.252 C 
HETATM   12  N   UNL     1      68.023   6.217   7.436  1.00  0.00    -0.072 N 
HETATM   13  C   UNL     1      66.945   7.172   7.774  1.00  0.00     0.252 C 
HETATM   14  H   UNL     1      68.903   6.719   7.319  1.00  0.00     0.277 HD
HETATM   15  H   UNL     1      68.130   5.533   8.184  1.00  0.00     0.277 HD
HETATM   16  C   UNL     1      66.644   8.203   6.659  1.00  0.00     0.150 C 
ENDBRANCH   3   9
TORSDOF 1
ENDMDL
MODEL 3
REMARK VINA RESULT:      -4.6      3.234      4.680
REMARK  1 active torsions:
REMARK  status: ('A' for Active; 'I' for Inactive)
REMARK    1  A    between atoms: N_1  and  C_4 
ROOT
HETATM    1  N   UNL     1      63.774  11.723   6.655  1.00  0.00    -0.191 NA
HETATM    2  C   UNL     1      63.303  11.061   5.823  1.00  0.00     0.099 C 
HETATM    3  C   UNL     1      61.639   8.613   2.749  1.00  0.00     0.030 A 
HETATM    4  C   UNL     1      62.218   8.058   3.900  1.00  0.00     0.031 A 
HETATM    5  C   UNL     1      61.606  10.014   2.667  1.00  0.00     0.031 A 
HETATM    6  C   UNL     1      62.733  10.243   4.797  1.00  0.00     0.044 A 
HETATM    7  C   UNL     1      62.139  10.824   3.677  1.00  0.00     0.025 A 
HETATM    8  C   UNL     1      62.766   8.854   4.911  1.00  0.00     0.025 A 
ENDROOT
BRANCH   3   9
HETATM    9  N   UNL     1      61.123   7.822   1.746  1.00  0.00    -0.378 N 
HETATM   10  C   UNL     1      60.135   8.322   0.781  1.00  0.00     0.150 C 
HETATM   11  C   UNL     1      58.837   7.489   0.824  1.00  0.00     0.252 C 
HETATM   12  N   UNL     1      59.063   6.034   0.690  1.00  0.00    -0.072 N 
HETATM   13  C   UNL     1      60.011   5.604   1.741  1.00  0.00     0.252 C 
HETATM   14  H   UNL     1      59.454   5.831  -0.230  1.00  0.00     0.277 HD
HETATM   15  H   UNL     1      58.180   5.535   0.792  1.00  0.00     0.277 HD
HETATM   16  C   UNL     1      61.356   6.370   1.726  1.00  0.00     0.150 C 
ENDBRANCH   3   9
TORSDOF 1
ENDMDL
MODEL 4
REMARK VINA RESULT:      -4.5      1.432      6.007
REMARK  1 active torsions:
REMARK  status: ('A' for Active; 'I' for Inactive)
REMARK    1  A    between atoms: N_1  and  C_4 
ROOT
HETATM    1  N   UNL     1      61.700  11.165   3.950  1.00  0.00    -0.191 NA
HETATM    2  C   UNL     1      62.404  10.248   4.078  1.00  0.00     0.099 C 
HETATM    3  C   UNL     1      65.039   6.921   4.522  1.00  0.00     0.030 A 
HETATM    4  C   UNL     1      65.134   8.052   5.348  1.00  0.00     0.031 A 
HETATM    5  C   UNL     1      64.017   6.921   3.561  1.00  0.00     0.031 A 
HETATM    6  C   UNL     1      63.278   9.126   4.234  1.00  0.00     0.044 A 
HETATM    7  C   UNL     1      63.140   8.004   3.417  1.00  0.00     0.025 A 
HETATM    8  C   UNL     1      64.275   9.146   5.208  1.00  0.00     0.025 A 
ENDROOT
BRANCH   3   9
HETATM    9  N   UNL     1      65.905   5.857   4.650  1.00  0.00    -0.378 N 
HETATM   10  C   UNL     1      65.437   4.466   4.704  1.00  0.00     0.150 C 
HETATM   11  C   UNL     1      65.880   3.775   6.011  1.00  0.00     0.252 C 
HETATM   12  N   UNL     1      67.329   3.889   6.278  1.00  0.00    -0.072 N 
HETATM   13  C   UNL     1      67.700   5.321   6.277  1.00  0.00     0.252 C 
HETATM   14  H   UNL     1      67.852   3.398   5.553  1.00  0.00     0.277 HD
HETATM   15  H   UNL     1      67.550   3.473   7.183  1.00  0.00     0.277 HD
HETATM   16  C   UNL     1      67.324   6.066   4.973  1.00  0.00     0.150 C 
ENDBRANCH   3   9
TORSDOF 1
ENDMDL
MODEL 5
REMARK VINA RESULT:      -4.4      1.659      6.247
REMARK  1 active torsions:
REMARK  status: ('A' for Active; 'I' for Inactive)
REMARK    1  A    between atoms: N_1  and  C_4 
ROOT
HETATM    1  N   UNL     1      61.700  10.067   2.554  1.00  0.00    -0.191 NA
HETATM    2  C   UNL     1      62.455   9.421   3.159  1.00  0.00     0.099 C 
HETATM    3  C   UNL     1      65.172   7.013   5.400  1.00  0.00     0.030 A 
HETATM    4  C   UNL     1      64.554   6.536   4.235  1.00  0.00     0.031 A 
HETATM    5  C   UNL     1      64.878   8.331   5.781  1.00  0.00     0.031 A 
HETATM    6  C   UNL     1      63.376   8.620   3.905  1.00  0.00     0.044 A 
HETATM    7  C   UNL     1      63.997   9.132   5.044  1.00  0.00     0.025 A 
HETATM    8  C   UNL     1      63.662   7.319   3.496  1.00  0.00     0.025 A 
ENDROOT
BRANCH   3   9
HETATM    9  N   UNL     1      66.031   6.226   6.137  1.00  0.00    -0.378 N 
HETATM   10  C   UNL     1      66.132   4.775   5.940  1.00  0.00     0.150 C 
HETATM   11  C   UNL     1      65.811   4.008   7.241  1.00  0.00     0.252 C 
HETATM   12  N   UNL     1      66.594   4.470   8.407  1.00  0.00    -0.072 N 
HETATM   13  C   UNL     1      66.379   5.924   8.575  1.00  0.00     0.252 C 
HETATM   14  H   UNL     1      67.584   4.284   8.252  1.00  0.00     0.277 HD
HETATM   15  H   UNL     1      66.292   3.975   9.246  1.00  0.00     0.277 HD
HETATM   16  C   UNL     1      66.725   6.760   7.319  1.00  0.00     0.150 C 
ENDBRANCH   3   9
TORSDOF 1
ENDMDL
MODEL 6
REMARK VINA RESULT:      -4.4      3.190      6.218
REMARK  1 active torsions:
REMARK  status: ('A' for Active; 'I' for Inactive)
REMARK    1  A    between atoms: N_1  and  C_4 
ROOT
HETATM    1  N   UNL     1      56.182   6.626   0.924  1.00  0.00    -0.191 NA
HETATM    2  C   UNL     1      57.217   6.992   1.307  1.00  0.00     0.099 C 
HETATM    3  C   UNL     1      60.984   8.388   2.744  1.00  0.00     0.030 A 
HETATM    4  C   UNL     1      60.052   7.775   3.595  1.00  0.00     0.031 A 
HETATM    5  C   UNL     1      60.633   8.495   1.390  1.00  0.00     0.031 A 
HETATM    6  C   UNL     1      58.486   7.449   1.784  1.00  0.00     0.044 A 
HETATM    7  C   UNL     1      59.403   8.029   0.908  1.00  0.00     0.025 A 
HETATM    8  C   UNL     1      58.816   7.316   3.132  1.00  0.00     0.025 A 
ENDROOT
BRANCH   3   9
HETATM    9  N   UNL     1      62.191   8.860   3.213  1.00  0.00    -0.378 N 
HETATM   10  C   UNL     1      63.352   7.984   3.415  1.00  0.00     0.150 C 
HETATM   11  C   UNL     1      63.834   8.020   4.881  1.00  0.00     0.252 C 
HETATM   12  N   UNL     1      64.069   9.387   5.393  1.00  0.00    -0.072 N 
HETATM   13  C   UNL     1      62.831  10.177   5.216  1.00  0.00     0.252 C 
HETATM   14  H   UNL     1      64.832   9.822   4.874  1.00  0.00     0.277 HD
HETATM   15  H   UNL     1      64.320   9.350   6.380  1.00  0.00     0.277 HD
HETATM   16  C   UNL     1      62.316  10.221   3.756  1.00  0.00     0.150 C 
ENDBRANCH   3   9
TORSDOF 1
ENDMDL
MODEL 7
REMARK VINA RESULT:      -4.3      2.204      3.214
REMARK  1 active torsions:
REMARK  status: ('A' for Active; 'I' for Inactive)
REMARK    1  A    between atoms: N_1  and  C_4 
ROOT
HETATM    1  N   UNL     1      66.793   8.456   6.445  1.00  0.00    -0.191 NA
HETATM    2  C   UNL     1      65.818   8.431   5.812  1.00  0.00     0.099 C 
HETATM    3  C   UNL     1      62.274   8.356   3.435  1.00  0.00     0.030 A 
HETATM    4  C   UNL     1      63.264   7.370   3.313  1.00  0.00     0.031 A 
HETATM    5  C   UNL     1      62.489   9.356   4.397  1.00  0.00     0.031 A 
HETATM    6  C   UNL     1      64.622   8.401   5.025  1.00  0.00     0.044 A 
HETATM    7  C   UNL     1      63.643   9.381   5.189  1.00  0.00     0.025 A 
HETATM    8  C   UNL     1      64.428   7.388   4.088  1.00  0.00     0.025 A 
ENDROOT
BRANCH   3   9
HETATM    9  N   UNL     1      61.141   8.345   2.651  1.00  0.00    -0.378 N 
HETATM   10  C   UNL     1      59.920   7.631   3.045  1.00  0.00     0.150 C 
HETATM   11  C   UNL     1      59.524   6.574   1.993  1.00  0.00     0.252 C 
HETATM   12  N   UNL     1      59.439   7.111   0.618  1.00  0.00    -0.072 N 
HETATM   13  C   UNL     1      60.730   7.748   0.278  1.00  0.00     0.252 C 
HETATM   14  H   UNL     1      58.690   7.802   0.564  1.00  0.00     0.277 HD
HETATM   15  H   UNL     1      59.239   6.356  -0.038  1.00  0.00     0.277 HD
HETATM   16  C   UNL     1      61.167   8.853   1.270  1.00  0.00     0.150 C 
ENDBRANCH   3   9
TORSDOF 1
ENDMDL
MODEL 8
REMARK VINA RESULT:      -4.3      1.920      2.682
REMARK  1 active torsions:
REMARK  status: ('A' for Active; 'I' for Inactive)
REMARK    1  A    between atoms: N_1  and  C_4 
ROOT
HETATM    1  N   UNL     1      67.746   6.289   9.028  1.00  0.00    -0.191 NA
HETATM    2  C   UNL     1      66.965   6.542   8.205  1.00  0.00     0.099 C 
HETATM    3  C   UNL     1      64.116   7.415   5.150  1.00  0.00     0.030 A 
HETATM    4  C   UNL     1      63.917   6.371   6.066  1.00  0.00     0.031 A 
HETATM    5  C   UNL     1      65.283   8.180   5.302  1.00  0.00     0.031 A 
HETATM    6  C   UNL     1      66.005   6.845   7.188  1.00  0.00     0.044 A 
HETATM    7  C   UNL     1      66.217   7.907   6.309  1.00  0.00     0.025 A 
HETATM    8  C   UNL     1      64.846   6.079   7.069  1.00  0.00     0.025 A 
ENDROOT
BRANCH   3   9
HETATM    9  N   UNL     1      63.207   7.682   4.149  1.00  0.00    -0.378 N 
HETATM   10  C   UNL     1      63.033   9.026   3.585  1.00  0.00     0.150 C 
HETATM   11  C   UNL     1      61.580   9.520   3.750  1.00  0.00     0.252 C 
HETATM   12  N   UNL     1      60.570   8.565   3.245  1.00  0.00    -0.072 N 
HETATM   13  C   UNL     1      60.773   7.263   3.916  1.00  0.00     0.252 C 
HETATM   14  H   UNL     1      60.677   8.453   2.237  1.00  0.00     0.277 HD
HETATM   15  H   UNL     1      59.633   8.915   3.441  1.00  0.00     0.277 HD
HETATM   16  C   UNL     1      62.201   6.686   3.751  1.00  0.00     0.150 C 
ENDBRANCH   3   9
TORSDOF 1
ENDMDL
MODEL 9
REMARK VINA RESULT:      -3.9      3.629      4.197
REMARK  1 active torsions:
REMARK  status: ('A' for Active; 'I' for Inactive)
REMARK    1  A    between atoms: N_1  and  C_4 
ROOT
HETATM    1  N   UNL     1      66.446   8.480   5.573  1.00  0.00    -0.191 NA
HETATM    2  C   UNL     1      65.338   8.167   5.410  1.00  0.00     0.099 C 
HETATM    3  C   UNL     1      61.293   6.964   4.775  1.00  0.00     0.030 A 
HETATM    4  C   UNL     1      62.132   6.284   5.670  1.00  0.00     0.031 A 
HETATM    5  C   UNL     1      61.836   8.078   4.118  1.00  0.00     0.031 A 
HETATM    6  C   UNL     1      63.977   7.774   5.205  1.00  0.00     0.044 A 
HETATM    7  C   UNL     1      63.159   8.487   4.329  1.00  0.00     0.025 A 
HETATM    8  C   UNL     1      63.458   6.672   5.883  1.00  0.00     0.025 A 
ENDROOT
BRANCH   3   9
HETATM    9  N   UNL     1      59.994   6.561   4.552  1.00  0.00    -0.378 N 
HETATM   10  C   UNL     1      59.131   7.208   3.557  1.00  0.00     0.150 C 
HETATM   11  C   UNL     1      57.852   7.777   4.207  1.00  0.00     0.252 C 
HETATM   12  N   UNL     1      57.118   6.792   5.029  1.00  0.00    -0.072 N 
HETATM   13  C   UNL     1      58.040   6.244   6.047  1.00  0.00     0.252 C 
HETATM   14  H   UNL     1      56.774   6.037   4.435  1.00  0.00     0.277 HD
HETATM   15  H   UNL     1      56.324   7.241   5.484  1.00  0.00     0.277 HD
HETATM   16  C   UNL     1      59.326   5.614   5.459  1.00  0.00     0.150 C 
ENDBRANCH   3   9
TORSDOF 1
ENDMDL
