MODEL 1
REMARK VINA RESULT:      -5.8      0.000      0.000
REMARK  1 active torsions:
REMARK  status: ('A' for Active; 'I' for Inactive)
REMARK    1  A    between atoms: C_7  and  C_8 
ROOT
HETATM    1  N   UNL     1      64.160   6.157   2.895  1.00  0.00    -0.358 N 
HETATM    2  C   UNL     1      64.602   7.789   4.362  1.00  0.00    -0.000 A 
HETATM    3  C   UNL     1      65.632   6.812   4.429  1.00  0.00    -0.023 A 
HETATM    4  C   UNL     1      65.325   5.819   3.522  1.00  0.00     0.017 A 
HETATM    5  C   UNL     1      63.691   7.354   3.394  1.00  0.00     0.043 A 
HETATM    6  C   UNL     1      64.345   8.997   5.043  1.00  0.00     0.032 A 
HETATM    7  C   UNL     1      63.186   9.728   4.733  1.00  0.00     0.041 A 
HETATM    8  C   UNL     1      62.532   8.070   3.070  1.00  0.00     0.031 A 
HETATM    9  C   UNL     1      62.297   9.265   3.757  1.00  0.00     0.021 A 
HETATM   10  C   UNL     1      66.844   6.739   5.293  1.00  0.00     0.041 C 
HETATM   11  C   UNL     1      66.077   4.553   3.303  1.00  0.00     0.057 C 
HETATM   12  C   UNL     1      67.273   5.271   5.471  1.00  0.00     0.005 C 
HETATM   13  C   UNL     1      67.387   4.545   4.116  1.00  0.00     0.006 C 
HETATM   14  H   UNL     1      63.720   5.627   2.192  1.00  0.00     0.166 HD
ENDROOT
BRANCH   7  15
HETATM   15  C   UNL     1      62.860  11.000   5.424  1.00  0.00     0.209 C 
HETATM   16  O   UNL     1      63.258  11.337   6.522  1.00  0.00    -0.644 OA
HETATM   17  O   UNL     1      62.050  11.797   4.704  1.00  0.00    -0.644 OA
ENDBRANCH   7  15
TORSDOF 1
ENDMDL
MODEL 2
REMARK VINA RESULT:      -5.8      1.195      1.748
REMARK  1 active torsions:
REMARK  status: ('A' for Active; 'I' for Inactive)
REMARK    1  A    between atoms: C_7  and  C_8 
ROOT
HETATM    1  N   UNL     1      65.258   5.937   4.031  1.00  0.00    -0.358 N 
HETATM    2  C   UNL     1      64.841   7.901   5.020  1.00  0.00    -0.000 A 
HETATM    3  C   UNL     1      65.888   7.242   5.719  1.00  0.00    -0.023 A 
HETATM    4  C   UNL     1      66.113   6.035   5.091  1.00  0.00     0.017 A 
HETATM    5  C   UNL     1      64.463   7.062   3.968  1.00  0.00     0.043 A 
HETATM    6  C   UNL     1      64.164   9.127   5.189  1.00  0.00     0.032 A 
HETATM    7  C   UNL     1      63.132   9.470   4.300  1.00  0.00     0.041 A 
HETATM    8  C   UNL     1      63.439   7.388   3.070  1.00  0.00     0.031 A 
HETATM    9  C   UNL     1      62.780   8.608   3.256  1.00  0.00     0.021 A 
HETATM   10  C   UNL     1      66.654   7.653   6.930  1.00  0.00     0.041 C 
HETATM   11  C   UNL     1      67.063   4.973   5.523  1.00  0.00     0.057 C 
HETATM   12  C   UNL     1      67.182   6.405   7.663  1.00  0.00     0.005 C 
HETATM   13  C   UNL     1      67.929   5.457   6.704  1.00  0.00     0.006 C 
HETATM   14  H   UNL     1      65.216   5.179   3.405  1.00  0.00     0.166 HD
ENDROOT
BRANCH   7  15
HETATM   15  C   UNL     1      62.379  10.742   4.436  1.00  0.00     0.209 C 
HETATM   16  O   UNL     1      61.578  11.185   3.637  1.00  0.00    -0.644 OA
HETATM   17  O   UNL     1      62.664  11.403   5.573  1.00  0.00    -0.644 OA
ENDBRANCH   7  15
TORSDOF 1
ENDMDL
MODEL 3
REMARK VINA RESULT:      -5.7      2.597      3.473
REMARK  1 active torsions:
REMARK  status: ('A' for Active; 'I' for Inactive)
REMARK    1  A    between atoms: C_7  and  C_8 
ROOT
HETATM    1  N   UNL     1      64.571   9.163   5.804  1.00  0.00    -0.358 N 
HETATM    2  C   UNL     1      63.949   8.047   3.966  1.00  0.00    -0.000 A 
HETATM    3  C   UNL     1      65.092   7.416   4.528  1.00  0.00    -0.023 A 
HETATM    4  C   UNL     1      65.453   8.131   5.651  1.00  0.00     0.017 A 
HETATM    5  C   UNL     1      63.644   9.140   4.784  1.00  0.00     0.043 A 
HETATM    6  C   UNL     1      63.151   7.805   2.829  1.00  0.00     0.032 A 
HETATM    7  C   UNL     1      62.075   8.665   2.549  1.00  0.00     0.041 A 
HETATM    8  C   UNL     1      62.575  10.006   4.522  1.00  0.00     0.031 A 
HETATM    9  C   UNL     1      61.796   9.747   3.389  1.00  0.00     0.021 A 
HETATM   10  C   UNL     1      65.865   6.227   4.072  1.00  0.00     0.041 C 
HETATM   11  C   UNL     1      66.641   7.888   6.515  1.00  0.00     0.057 C 
HETATM   12  C   UNL     1      67.315   6.317   4.585  1.00  0.00     0.005 C 
HETATM   13  C   UNL     1      67.364   6.590   6.101  1.00  0.00     0.006 C 
HETATM   14  H   UNL     1      64.592   9.823   6.534  1.00  0.00     0.166 HD
ENDROOT
BRANCH   7  15
HETATM   15  C   UNL     1      61.208   8.463   1.362  1.00  0.00     0.209 C 
HETATM   16  O   UNL     1      60.009   8.266   1.380  1.00  0.00    -0.644 OA
HETATM   17  O   UNL     1      61.885   8.521   0.200  1.00  0.00    -0.644 OA
ENDBRANCH   7  15
TORSDOF 1
ENDMDL
MODEL 4
REMARK VINA RESULT:      -5.7      2.234      4.831
REMARK  1 active torsions:
REMARK  status: ('A' for Active; 'I' for Inactive)
REMARK    1  A    between atoms: C_7  and  C_8 
ROOT
HETATM    1  N   UNL     1      63.649   6.338   2.146  1.00  0.00    -0.358 N 
HETATM    2  C   UNL     1      64.087   7.723   3.849  1.00  0.00    -0.000 A 
HETATM    3  C   UNL     1      63.062   8.287   3.043  1.00  0.00    -0.023 A 
HETATM    4  C   UNL     1      62.823   7.416   2.001  1.00  0.00     0.017 A 
HETATM    5  C   UNL     1      64.439   6.502   3.265  1.00  0.00     0.043 A 
HETATM    6  C   UNL     1      64.765   8.138   5.014  1.00  0.00     0.032 A 
HETATM    7  C   UNL     1      65.771   7.319   5.553  1.00  0.00     0.041 A 
HETATM    8  C   UNL     1      65.437   5.671   3.788  1.00  0.00     0.031 A 
HETATM    9  C   UNL     1      66.096   6.103   4.944  1.00  0.00     0.021 A 
HETATM   10  C   UNL     1      62.328   9.578   3.172  1.00  0.00     0.041 C 
HETATM   11  C   UNL     1      61.888   7.629   0.862  1.00  0.00     0.057 C 
HETATM   12  C   UNL     1      61.824  10.034   1.789  1.00  0.00     0.005 C 
HETATM   13  C   UNL     1      61.055   8.910   1.068  1.00  0.00     0.006 C 
HETATM   14  H   UNL     1      63.677   5.560   1.543  1.00  0.00     0.166 HD
ENDROOT
BRANCH   7  15
HETATM   15  C   UNL     1      66.523   7.711   6.771  1.00  0.00     0.209 C 
HETATM   16  O   UNL     1      66.988   6.951   7.597  1.00  0.00    -0.644 OA
HETATM   17  O   UNL     1      66.661   9.044   6.898  1.00  0.00    -0.644 OA
ENDBRANCH   7  15
TORSDOF 1
ENDMDL
MODEL 5
REMARK VINA RESULT:      -5.5      1.781      2.388
REMARK  1 active torsions:
REMARK  status: ('A' for Active; 'I' for Inactive)
REMARK    1  A    between atoms: C_7  and  C_8 
ROOT
HETATM    1  N   UNL     1      63.418   6.135   2.489  1.00  0.00    -0.358 N 
HETATM    2  C   UNL     1      63.268   8.099   3.554  1.00  0.00    -0.000 A 
HETATM    3  C   UNL     1      63.903   7.155   4.407  1.00  0.00    -0.023 A 
HETATM    4  C   UNL     1      63.971   5.958   3.726  1.00  0.00     0.017 A 
HETATM    5  C   UNL     1      62.973   7.434   2.359  1.00  0.00     0.043 A 
HETATM    6  C   UNL     1      62.899   9.453   3.686  1.00  0.00     0.032 A 
HETATM    7  C   UNL     1      62.248  10.096   2.620  1.00  0.00     0.041 A 
HETATM    8  C   UNL     1      62.327   8.058   1.285  1.00  0.00     0.031 A 
HETATM    9  C   UNL     1      61.970   9.402   1.438  1.00  0.00     0.021 A 
HETATM   10  C   UNL     1      64.412   7.297   5.800  1.00  0.00     0.041 C 
HETATM   11  C   UNL     1      64.483   4.663   4.255  1.00  0.00     0.057 C 
HETATM   12  C   UNL     1      64.406   5.926   6.502  1.00  0.00     0.005 C 
HETATM   13  C   UNL     1      65.111   4.851   5.651  1.00  0.00     0.006 C 
HETATM   14  H   UNL     1      63.349   5.441   1.795  1.00  0.00     0.166 HD
ENDROOT
BRANCH   7  15
HETATM   15  C   UNL     1      61.829  11.517   2.708  1.00  0.00     0.209 C 
HETATM   16  O   UNL     1      61.496  12.221   1.775  1.00  0.00    -0.644 OA
HETATM   17  O   UNL     1      61.843  11.992   3.967  1.00  0.00    -0.644 OA
ENDBRANCH   7  15
TORSDOF 1
ENDMDL
MODEL 6
REMARK VINA RESULT:      -5.4      3.044      5.058
REMARK  1 active torsions:
REMARK  status: ('A' for Active; 'I' for Inactive)
REMARK    1  A    between atoms: C_7  and  C_8 
ROOT
HETATM    1  N   UNL     1      60.861   6.915   4.319  1.00  0.00    -0.358 N 
HETATM    2  C   UNL     1      62.858   7.875   4.000  1.00  0.00    -0.000 A 
HETATM    3  C   UNL     1      62.038   8.121   2.866  1.00  0.00    -0.023 A 
HETATM    4  C   UNL     1      60.821   7.510   3.090  1.00  0.00     0.017 A 
HETATM    5  C   UNL     1      62.097   7.117   4.896  1.00  0.00     0.043 A 
HETATM    6  C   UNL     1      64.182   8.211   4.348  1.00  0.00     0.032 A 
HETATM    7  C   UNL     1      64.701   7.776   5.580  1.00  0.00     0.041 A 
HETATM    8  C   UNL     1      62.595   6.676   6.128  1.00  0.00     0.031 A 
HETATM    9  C   UNL     1      63.912   7.020   6.453  1.00  0.00     0.021 A 
HETATM   10  C   UNL     1      62.328   8.852   1.600  1.00  0.00     0.041 C 
HETATM   11  C   UNL     1      59.678   7.432   2.140  1.00  0.00     0.057 C 
HETATM   12  C   UNL     1      61.430   8.317   0.469  1.00  0.00     0.005 C 
HETATM   13  C   UNL     1      59.947   8.289   0.886  1.00  0.00     0.006 C 
HETATM   14  H   UNL     1      60.118   6.419   4.732  1.00  0.00     0.166 HD
ENDROOT
BRANCH   7  15
HETATM   15  C   UNL     1      66.090   8.091   5.993  1.00  0.00     0.209 C 
HETATM   16  O   UNL     1      66.503   8.132   7.136  1.00  0.00    -0.644 OA
HETATM   17  O   UNL     1      66.905   8.341   4.952  1.00  0.00    -0.644 OA
ENDBRANCH   7  15
TORSDOF 1
ENDMDL
MODEL 7
REMARK VINA RESULT:      -5.4      3.489      5.991
REMARK  1 active torsions:
REMARK  status: ('A' for Active; 'I' for Inactive)
REMARK    1  A    between atoms: C_7  and  C_8 
ROOT
HETATM    1  N   UNL     1      64.926   9.097   5.834  1.00  0.00    -0.358 N 
HETATM    2  C   UNL     1      65.016   7.474   4.295  1.00  0.00    -0.000 A 
HETATM    3  C   UNL     1      63.909   8.320   4.014  1.00  0.00    -0.023 A 
HETATM    4  C   UNL     1      63.877   9.301   4.983  1.00  0.00     0.017 A 
HETATM    5  C   UNL     1      65.636   7.983   5.440  1.00  0.00     0.043 A 
HETATM    6  C   UNL     1      65.546   6.314   3.694  1.00  0.00     0.032 A 
HETATM    7  C   UNL     1      66.676   5.701   4.260  1.00  0.00     0.041 A 
HETATM    8  C   UNL     1      66.765   7.388   6.018  1.00  0.00     0.031 A 
HETATM    9  C   UNL     1      67.273   6.237   5.406  1.00  0.00     0.021 A 
HETATM   10  C   UNL     1      62.885   8.249   2.934  1.00  0.00     0.041 C 
HETATM   11  C   UNL     1      62.842  10.360   5.141  1.00  0.00     0.057 C 
HETATM   12  C   UNL     1      61.586   8.935   3.398  1.00  0.00     0.005 C 
HETATM   13  C   UNL     1      61.858  10.347   3.955  1.00  0.00     0.006 C 
HETATM   14  H   UNL     1      65.144   9.662   6.610  1.00  0.00     0.166 HD
ENDROOT
BRANCH   7  15
HETATM   15  C   UNL     1      67.270   4.473   3.676  1.00  0.00     0.209 C 
HETATM   16  O   UNL     1      67.577   3.469   4.287  1.00  0.00    -0.644 OA
HETATM   17  O   UNL     1      67.449   4.558   2.344  1.00  0.00    -0.644 OA
ENDBRANCH   7  15
TORSDOF 1
ENDMDL
MODEL 8
REMARK VINA RESULT:      -5.2      2.783      4.934
REMARK  1 active torsions:
REMARK  status: ('A' for Active; 'I' for Inactive)
REMARK    1  A    between atoms: C_7  and  C_8 
ROOT
HETATM    1  N   UNL     1      60.833   9.119   2.865  1.00  0.00    -0.358 N 
HETATM    2  C   UNL     1      62.732   7.978   3.187  1.00  0.00    -0.000 A 
HETATM    3  C   UNL     1      61.975   7.342   2.165  1.00  0.00    -0.023 A 
HETATM    4  C   UNL     1      60.811   8.063   1.999  1.00  0.00     0.017 A 
HETATM    5  C   UNL     1      61.994   9.087   3.609  1.00  0.00     0.043 A 
HETATM    6  C   UNL     1      63.969   7.709   3.807  1.00  0.00     0.032 A 
HETATM    7  C   UNL     1      64.426   8.558   4.828  1.00  0.00     0.041 A 
HETATM    8  C   UNL     1      62.433   9.947   4.624  1.00  0.00     0.031 A 
HETATM    9  C   UNL     1      63.663   9.662   5.225  1.00  0.00     0.021 A 
HETATM   10  C   UNL     1      62.257   6.111   1.373  1.00  0.00     0.041 C 
HETATM   11  C   UNL     1      59.678   7.724   1.095  1.00  0.00     0.057 C 
HETATM   12  C   UNL     1      60.935   5.481   0.897  1.00  0.00     0.005 C 
HETATM   13  C   UNL     1      60.031   6.518   0.200  1.00  0.00     0.006 C 
HETATM   14  H   UNL     1      60.128   9.800   2.946  1.00  0.00     0.166 HD
ENDROOT
BRANCH   7  15
HETATM   15  C   UNL     1      65.715   8.318   5.522  1.00  0.00     0.209 C 
HETATM   16  O   UNL     1      66.158   8.966   6.450  1.00  0.00    -0.644 OA
HETATM   17  O   UNL     1      66.395   7.270   5.020  1.00  0.00    -0.644 OA
ENDBRANCH   7  15
TORSDOF 1
ENDMDL
MODEL 9
REMARK VINA RESULT:      -5.1      3.979      4.401
REMARK  1 active torsions:
REMARK  status: ('A' for Active; 'I' for Inactive)
REMARK    1  A    between atoms: C_7  and  C_8 
ROOT
HETATM    1  N   UNL     1      61.233   5.780   1.983  1.00  0.00    -0.358 N 
HETATM    2  C   UNL     1      61.251   7.583   3.309  1.00  0.00    -0.000 A 
HETATM    3  C   UNL     1      60.938   6.436   4.088  1.00  0.00    -0.023 A 
HETATM    4  C   UNL     1      60.926   5.347   3.242  1.00  0.00     0.017 A 
HETATM    5  C   UNL     1      61.430   7.145   1.994  1.00  0.00     0.043 A 
HETATM    6  C   UNL     1      61.385   8.958   3.592  1.00  0.00     0.032 A 
HETATM    7  C   UNL     1      61.692   9.847   2.549  1.00  0.00     0.041 A 
HETATM    8  C   UNL     1      61.739   8.015   0.941  1.00  0.00     0.031 A 
HETATM    9  C   UNL     1      61.867   9.375   1.244  1.00  0.00     0.021 A 
HETATM   10  C   UNL     1      60.628   6.305   5.540  1.00  0.00     0.041 C 
HETATM   11  C   UNL     1      60.567   3.947   3.599  1.00  0.00     0.057 C 
HETATM   12  C   UNL     1      59.754   5.060   5.779  1.00  0.00     0.005 C 
HETATM   13  C   UNL     1      60.362   3.805   5.121  1.00  0.00     0.006 C 
HETATM   14  H   UNL     1      61.304   5.204   1.187  1.00  0.00     0.166 HD
ENDROOT
BRANCH   7  15
HETATM   15  C   UNL     1      61.836  11.305   2.786  1.00  0.00     0.209 C 
HETATM   16  O   UNL     1      61.961  12.158   1.930  1.00  0.00    -0.644 OA
HETATM   17  O   UNL     1      61.813  11.629   4.092  1.00  0.00    -0.644 OA
ENDBRANCH   7  15
TORSDOF 1
ENDMDL
