MODEL 1
REMARK VINA RESULT:      -5.2      0.000      0.000
REMARK  3 active torsions:
REMARK  status: ('A' for Active; 'I' for Inactive)
REMARK    1  A    between atoms: C_1  and  N_2 
REMARK    2  A    between atoms: C_6  and  C_12 
REMARK    3  A    between atoms: O_11  and  C_12 
ROOT
HETATM    1  C   UNL     1      64.454   8.116   5.215  1.00  0.00     0.102 A 
HETATM    2  N   UNL     1      64.075   9.293   5.755  1.00  0.00    -0.352 N 
ATOM      3  HN  UNL     1      64.443   9.597   6.656  1.00  0.00     0.166 HD
HETATM    4  C   UNL     1      63.921   7.687   3.998  1.00  0.00     0.049 A 
HETATM    5  C   UNL     1      62.660   9.733   3.833  1.00  0.00    -0.019 A 
HETATM    6  C   UNL     1      63.193  10.061   5.070  1.00  0.00     0.099 A 
HETATM    7  C   UNL     1      63.031   8.500   3.299  1.00  0.00     0.014 A 
ENDROOT
BRANCH   1   8
HETATM    8  N   UNL     1      65.484   7.391   5.793  1.00  0.00    -0.367 N 
HETATM    9  C   UNL     1      65.183   6.632   7.002  1.00  0.00     0.124 C 
HETATM   10  C   UNL     1      66.457   6.610   7.853  1.00  0.00     0.020 C 
HETATM   11  C   UNL     1      67.660   6.082   7.067  1.00  0.00     0.003 C 
HETATM   12  C   UNL     1      67.815   6.784   5.714  1.00  0.00     0.020 C 
HETATM   13  C   UNL     1      66.498   6.789   4.935  1.00  0.00     0.124 C 
ENDBRANCH   1   8
BRANCH   5  14
HETATM   14  C   UNL     1      61.784  10.674   3.072  1.00  0.00     0.204 C 
BRANCH  14  15
HETATM   15  O   UNL     1      61.862  11.983   3.622  1.00  0.00    -0.396 OA
HETATM   16  H   UNL     1      61.915  12.633   2.905  1.00  0.00     0.209 HD
ENDBRANCH  14  15
ENDBRANCH   5  14
TORSDOF 3
ENDMDL
MODEL 2
REMARK VINA RESULT:      -4.9      2.800      5.718
REMARK  3 active torsions:
REMARK  status: ('A' for Active; 'I' for Inactive)
REMARK    1  A    between atoms: C_1  and  N_2 
REMARK    2  A    between atoms: C_6  and  C_12 
REMARK    3  A    between atoms: O_11  and  C_12 
ROOT
HETATM    1  C   UNL     1      65.024   8.139   5.045  1.00  0.00     0.102 A 
HETATM    2  N   UNL     1      65.580   8.561   6.200  1.00  0.00    -0.352 N 
ATOM      3  HN  UNL     1      65.258   9.417   6.652  1.00  0.00     0.166 HD
HETATM    4  C   UNL     1      65.489   6.986   4.411  1.00  0.00     0.049 A 
HETATM    5  C   UNL     1      67.057   6.637   6.207  1.00  0.00    -0.019 A 
HETATM    6  C   UNL     1      66.576   7.820   6.743  1.00  0.00     0.099 A 
HETATM    7  C   UNL     1      66.500   6.226   4.996  1.00  0.00     0.014 A 
ENDROOT
BRANCH   1   8
HETATM    8  N   UNL     1      63.888   8.766   4.556  1.00  0.00    -0.367 N 
HETATM    9  C   UNL     1      63.096   8.051   3.561  1.00  0.00     0.124 C 
HETATM   10  C   UNL     1      62.471   9.102   2.638  1.00  0.00     0.020 C 
HETATM   11  C   UNL     1      61.685  10.156   3.423  1.00  0.00     0.003 C 
HETATM   12  C   UNL     1      62.503  10.737   4.581  1.00  0.00     0.020 C 
HETATM   13  C   UNL     1      63.116   9.630   5.440  1.00  0.00     0.124 C 
ENDBRANCH   1   8
BRANCH   5  14
HETATM   14  C   UNL     1      68.075   5.801   6.912  1.00  0.00     0.204 C 
BRANCH  14  15
HETATM   15  O   UNL     1      68.075   6.088   8.306  1.00  0.00    -0.396 OA
HETATM   16  H   UNL     1      67.771   6.998   8.448  1.00  0.00     0.209 HD
ENDBRANCH  14  15
ENDBRANCH   5  14
TORSDOF 3
ENDMDL
MODEL 3
REMARK VINA RESULT:      -4.7      2.659      5.722
REMARK  3 active torsions:
REMARK  status: ('A' for Active; 'I' for Inactive)
REMARK    1  A    between atoms: C_1  and  N_2 
REMARK    2  A    between atoms: C_6  and  C_12 
REMARK    3  A    between atoms: O_11  and  C_12 
ROOT
HETATM    1  C   UNL     1      64.087   8.250   5.096  1.00  0.00     0.102 A 
HETATM    2  N   UNL     1      63.624   7.412   6.046  1.00  0.00    -0.352 N 
ATOM      3  HN  UNL     1      62.626   7.222   6.133  1.00  0.00     0.166 HD
HETATM    4  C   UNL     1      65.450   8.536   5.002  1.00  0.00     0.049 A 
HETATM    5  C   UNL     1      65.890   7.015   6.818  1.00  0.00    -0.019 A 
HETATM    6  C   UNL     1      64.518   6.828   6.881  1.00  0.00     0.099 A 
HETATM    7  C   UNL     1      66.356   7.910   5.856  1.00  0.00     0.014 A 
ENDROOT
BRANCH   1   8
HETATM    8  N   UNL     1      63.230   8.723   4.114  1.00  0.00    -0.367 N 
HETATM    9  C   UNL     1      62.747   7.768   3.122  1.00  0.00     0.124 C 
HETATM   10  C   UNL     1      62.547   8.538   1.812  1.00  0.00     0.020 C 
HETATM   11  C   UNL     1      61.641   9.758   2.000  1.00  0.00     0.003 C 
HETATM   12  C   UNL     1      62.083  10.626   3.182  1.00  0.00     0.020 C 
HETATM   13  C   UNL     1      62.288   9.785   4.444  1.00  0.00     0.124 C 
ENDBRANCH   1   8
BRANCH   5  14
HETATM   14  C   UNL     1      66.835   6.254   7.689  1.00  0.00     0.204 C 
BRANCH  14  15
HETATM   15  O   UNL     1      67.522   7.136   8.569  1.00  0.00    -0.396 OA
HETATM   16  H   UNL     1      67.241   8.048   8.396  1.00  0.00     0.209 HD
ENDBRANCH  14  15
ENDBRANCH   5  14
TORSDOF 3
ENDMDL
MODEL 4
REMARK VINA RESULT:      -4.5      2.874      5.712
REMARK  3 active torsions:
REMARK  status: ('A' for Active; 'I' for Inactive)
REMARK    1  A    between atoms: C_1  and  N_2 
REMARK    2  A    between atoms: C_6  and  C_12 
REMARK    3  A    between atoms: O_11  and  C_12 
ROOT
HETATM    1  C   UNL     1      63.322   8.148   3.458  1.00  0.00     0.102 A 
HETATM    2  N   UNL     1      63.525   9.102   4.390  1.00  0.00    -0.352 N 
ATOM      3  HN  UNL     1      62.933   9.931   4.426  1.00  0.00     0.166 HD
HETATM    4  C   UNL     1      64.155   7.030   3.390  1.00  0.00     0.049 A 
HETATM    5  C   UNL     1      65.372   7.826   5.311  1.00  0.00    -0.019 A 
HETATM    6  C   UNL     1      64.535   8.930   5.277  1.00  0.00     0.099 A 
HETATM    7  C   UNL     1      65.177   6.862   4.324  1.00  0.00     0.014 A 
ENDROOT
BRANCH   1   8
HETATM    8  N   UNL     1      62.194   8.198   2.653  1.00  0.00    -0.367 N 
HETATM    9  C   UNL     1      60.892   8.167   3.311  1.00  0.00     0.124 C 
HETATM   10  C   UNL     1      59.922   7.454   2.364  1.00  0.00     0.020 C 
HETATM   11  C   UNL     1      59.906   8.095   0.973  1.00  0.00     0.003 C 
HETATM   12  C   UNL     1      61.318   8.280   0.410  1.00  0.00     0.020 C 
HETATM   13  C   UNL     1      62.234   8.974   1.420  1.00  0.00     0.124 C 
ENDBRANCH   1   8
BRANCH   5  14
HETATM   14  C   UNL     1      66.393   7.636   6.386  1.00  0.00     0.204 C 
BRANCH  14  15
HETATM   15  O   UNL     1      66.805   8.894   6.908  1.00  0.00    -0.396 OA
HETATM   16  H   UNL     1      66.164   9.195   7.570  1.00  0.00     0.209 HD
ENDBRANCH  14  15
ENDBRANCH   5  14
TORSDOF 3
ENDMDL
MODEL 5
REMARK VINA RESULT:      -4.2      1.587      1.978
REMARK  3 active torsions:
REMARK  status: ('A' for Active; 'I' for Inactive)
REMARK    1  A    between atoms: C_1  and  N_2 
REMARK    2  A    between atoms: C_6  and  C_12 
REMARK    3  A    between atoms: O_11  and  C_12 
ROOT
HETATM    1  C   UNL     1      64.671   7.437   4.459  1.00  0.00     0.102 A 
HETATM    2  N   UNL     1      64.290   6.778   3.345  1.00  0.00    -0.352 N 
ATOM      3  HN  UNL     1      64.747   5.908   3.072  1.00  0.00     0.166 HD
HETATM    4  C   UNL     1      64.068   8.646   4.812  1.00  0.00     0.049 A 
HETATM    5  C   UNL     1      62.600   8.464   2.911  1.00  0.00    -0.019 A 
HETATM    6  C   UNL     1      63.286   7.300   2.600  1.00  0.00     0.099 A 
HETATM    7  C   UNL     1      63.023   9.157   4.044  1.00  0.00     0.014 A 
ENDROOT
BRANCH   1   8
HETATM    8  N   UNL     1      65.564   6.847   5.340  1.00  0.00    -0.367 N 
HETATM    9  C   UNL     1      65.277   6.953   6.766  1.00  0.00     0.124 C 
HETATM   10  C   UNL     1      66.623   6.995   7.498  1.00  0.00     0.020 C 
HETATM   11  C   UNL     1      67.513   5.806   7.125  1.00  0.00     0.003 C 
HETATM   12  C   UNL     1      67.623   5.624   5.608  1.00  0.00     0.020 C 
HETATM   13  C   UNL     1      66.244   5.619   4.946  1.00  0.00     0.124 C 
ENDBRANCH   1   8
BRANCH   5  14
HETATM   14  C   UNL     1      61.423   8.928   2.116  1.00  0.00     0.204 C 
BRANCH  14  15
HETATM   15  O   UNL     1      60.212   8.620   2.795  1.00  0.00    -0.396 OA
HETATM   16  H   UNL     1      59.929   7.722   2.560  1.00  0.00     0.209 HD
ENDBRANCH  14  15
ENDBRANCH   5  14
TORSDOF 3
ENDMDL
MODEL 6
REMARK VINA RESULT:      -4.1      5.092      6.804
REMARK  3 active torsions:
REMARK  status: ('A' for Active; 'I' for Inactive)
REMARK    1  A    between atoms: C_1  and  N_2 
REMARK    2  A    between atoms: C_6  and  C_12 
REMARK    3  A    between atoms: O_11  and  C_12 
ROOT
HETATM    1  C   UNL     1      59.462   7.281   3.983  1.00  0.00     0.102 A 
HETATM    2  N   UNL     1      59.915   6.448   4.942  1.00  0.00    -0.352 N 
ATOM      3  HN  UNL     1      60.893   6.160   4.963  1.00  0.00     0.166 HD
HETATM    4  C   UNL     1      58.115   7.646   3.935  1.00  0.00     0.049 A 
HETATM    5  C   UNL     1      57.700   6.360   5.929  1.00  0.00    -0.019 A 
HETATM    6  C   UNL     1      59.038   6.002   5.875  1.00  0.00     0.099 A 
HETATM    7  C   UNL     1      57.233   7.194   4.915  1.00  0.00     0.014 A 
ENDROOT
BRANCH   1   8
HETATM    8  N   UNL     1      60.358   7.898   3.124  1.00  0.00    -0.367 N 
HETATM    9  C   UNL     1      61.523   8.549   3.715  1.00  0.00     0.124 C 
HETATM   10  C   UNL     1      61.876   9.743   2.822  1.00  0.00     0.020 C 
HETATM   11  C   UNL     1      62.067   9.326   1.361  1.00  0.00     0.003 C 
HETATM   12  C   UNL     1      60.899   8.478   0.849  1.00  0.00     0.020 C 
HETATM   13  C   UNL     1      60.587   7.324   1.804  1.00  0.00     0.124 C 
ENDBRANCH   1   8
BRANCH   5  14
HETATM   14  C   UNL     1      56.809   5.931   7.050  1.00  0.00     0.204 C 
BRANCH  14  15
HETATM   15  O   UNL     1      57.342   6.356   8.299  1.00  0.00    -0.396 OA
HETATM   16  H   UNL     1      58.226   5.976   8.419  1.00  0.00     0.209 HD
ENDBRANCH  14  15
ENDBRANCH   5  14
TORSDOF 3
ENDMDL
MODEL 7
REMARK VINA RESULT:      -4.1      2.964      5.771
REMARK  3 active torsions:
REMARK  status: ('A' for Active; 'I' for Inactive)
REMARK    1  A    between atoms: C_1  and  N_2 
REMARK    2  A    between atoms: C_6  and  C_12 
REMARK    3  A    between atoms: O_11  and  C_12 
ROOT
HETATM    1  C   UNL     1      64.361   7.443   5.510  1.00  0.00     0.102 A 
HETATM    2  N   UNL     1      64.289   6.623   6.579  1.00  0.00    -0.352 N 
ATOM      3  HN  UNL     1      63.386   6.299   6.928  1.00  0.00     0.166 HD
HETATM    4  C   UNL     1      65.595   7.912   5.056  1.00  0.00     0.049 A 
HETATM    5  C   UNL     1      66.708   6.618   6.756  1.00  0.00    -0.019 A 
HETATM    6  C   UNL     1      65.443   6.241   7.177  1.00  0.00     0.099 A 
HETATM    7  C   UNL     1      66.773   7.492   5.671  1.00  0.00     0.014 A 
ENDROOT
BRANCH   1   8
HETATM    8  N   UNL     1      63.223   7.708   4.764  1.00  0.00    -0.367 N 
HETATM    9  C   UNL     1      63.256   8.857   3.865  1.00  0.00     0.124 C 
HETATM   10  C   UNL     1      61.833   9.420   3.797  1.00  0.00     0.020 C 
HETATM   11  C   UNL     1      60.813   8.348   3.404  1.00  0.00     0.003 C 
HETATM   12  C   UNL     1      60.952   7.083   4.257  1.00  0.00     0.020 C 
HETATM   13  C   UNL     1      62.402   6.597   4.300  1.00  0.00     0.124 C 
ENDBRANCH   1   8
BRANCH   5  14
HETATM   14  C   UNL     1      67.949   6.071   7.382  1.00  0.00     0.204 C 
BRANCH  14  15
HETATM   15  O   UNL     1      68.074   6.530   8.723  1.00  0.00    -0.396 OA
HETATM   16  H   UNL     1      68.494   5.843   9.262  1.00  0.00     0.209 HD
ENDBRANCH  14  15
ENDBRANCH   5  14
TORSDOF 3
ENDMDL
MODEL 8
REMARK VINA RESULT:      -4.1      3.839      6.548
REMARK  3 active torsions:
REMARK  status: ('A' for Active; 'I' for Inactive)
REMARK    1  A    between atoms: C_1  and  N_2 
REMARK    2  A    between atoms: C_6  and  C_12 
REMARK    3  A    between atoms: O_11  and  C_12 
ROOT
HETATM    1  C   UNL     1      60.948   7.762   3.934  1.00  0.00     0.102 A 
HETATM    2  N   UNL     1      61.512   6.973   4.871  1.00  0.00    -0.352 N 
ATOM      3  HN  UNL     1      60.986   6.208   5.295  1.00  0.00     0.166 HD
HETATM    4  C   UNL     1      61.657   8.830   3.382  1.00  0.00     0.049 A 
HETATM    5  C   UNL     1      63.583   8.226   4.699  1.00  0.00    -0.019 A 
HETATM    6  C   UNL     1      62.793   7.222   5.237  1.00  0.00     0.099 A 
HETATM    7  C   UNL     1      62.981   9.058   3.755  1.00  0.00     0.014 A 
ENDROOT
BRANCH   1   8
HETATM    8  N   UNL     1      59.710   7.430   3.405  1.00  0.00    -0.367 N 
HETATM    9  C   UNL     1      59.659   7.032   2.002  1.00  0.00     0.124 C 
HETATM   10  C   UNL     1      58.302   7.483   1.452  1.00  0.00     0.020 C 
HETATM   11  C   UNL     1      57.139   6.953   2.296  1.00  0.00     0.003 C 
HETATM   12  C   UNL     1      57.340   7.230   3.789  1.00  0.00     0.020 C 
HETATM   13  C   UNL     1      58.725   6.778   4.258  1.00  0.00     0.124 C 
ENDBRANCH   1   8
BRANCH   5  14
HETATM   14  C   UNL     1      65.025   8.378   5.056  1.00  0.00     0.204 C 
BRANCH  14  15
HETATM   15  O   UNL     1      65.210   9.496   5.916  1.00  0.00    -0.396 OA
HETATM   16  H   UNL     1      64.920  10.303   5.464  1.00  0.00     0.209 HD
ENDBRANCH  14  15
ENDBRANCH   5  14
TORSDOF 3
ENDMDL
MODEL 9
REMARK VINA RESULT:      -4.0      3.417      5.713
REMARK  3 active torsions:
REMARK  status: ('A' for Active; 'I' for Inactive)
REMARK    1  A    between atoms: C_1  and  N_2 
REMARK    2  A    between atoms: C_6  and  C_12 
REMARK    3  A    between atoms: O_11  and  C_12 
ROOT
HETATM    1  C   UNL     1      62.578   7.308   5.329  1.00  0.00     0.102 A 
HETATM    2  N   UNL     1      63.232   6.506   6.194  1.00  0.00    -0.352 N 
ATOM      3  HN  UNL     1      62.756   5.725   6.644  1.00  0.00     0.166 HD
HETATM    4  C   UNL     1      63.222   8.397   4.741  1.00  0.00     0.049 A 
HETATM    5  C   UNL     1      65.264   7.791   5.867  1.00  0.00    -0.019 A 
HETATM    6  C   UNL     1      64.538   6.765   6.450  1.00  0.00     0.099 A 
HETATM    7  C   UNL     1      64.571   8.635   5.000  1.00  0.00     0.014 A 
ENDROOT
BRANCH   1   8
HETATM    8  N   UNL     1      61.301   6.970   4.905  1.00  0.00    -0.367 N 
HETATM    9  C   UNL     1      60.965   7.220   3.507  1.00  0.00     0.124 C 
HETATM   10  C   UNL     1      59.469   7.548   3.453  1.00  0.00     0.020 C 
HETATM   11  C   UNL     1      58.621   6.459   4.116  1.00  0.00     0.003 C 
HETATM   12  C   UNL     1      59.139   6.098   5.512  1.00  0.00     0.020 C 
HETATM   13  C   UNL     1      60.641   5.810   5.491  1.00  0.00     0.124 C 
ENDBRANCH   1   8
BRANCH   5  14
HETATM   14  C   UNL     1      66.731   7.956   6.097  1.00  0.00     0.204 C 
BRANCH  14  15
HETATM   15  O   UNL     1      66.972   8.953   7.082  1.00  0.00    -0.396 OA
HETATM   16  H   UNL     1      67.863   9.316   6.964  1.00  0.00     0.209 HD
ENDBRANCH  14  15
ENDBRANCH   5  14
TORSDOF 3
ENDMDL
