MODEL 1
REMARK VINA RESULT:      -5.4      0.000      0.000
REMARK  1 active torsions:
REMARK  status: ('A' for Active; 'I' for Inactive)
REMARK    1  A    between atoms: C_7  and  C_8 
ROOT
HETATM    1  N   UNL     1      60.898   9.358   2.485  1.00  0.00    -0.359 N 
HETATM    2  C   UNL     1      62.677   8.111   2.964  1.00  0.00    -0.001 A 
HETATM    3  C   UNL     1      61.997   7.530   1.846  1.00  0.00    -0.027 A 
HETATM    4  C   UNL     1      60.893   8.324   1.583  1.00  0.00     0.012 A 
HETATM    5  C   UNL     1      61.974   9.256   3.335  1.00  0.00     0.043 A 
HETATM    6  C   UNL     1      63.832   7.761   3.695  1.00  0.00     0.032 A 
HETATM    7  C   UNL     1      64.240   8.568   4.771  1.00  0.00     0.041 A 
HETATM    8  C   UNL     1      62.368  10.082   4.393  1.00  0.00     0.031 A 
HETATM    9  C   UNL     1      63.516   9.716   5.106  1.00  0.00     0.021 A 
HETATM   10  C   UNL     1      62.413   6.299   1.121  1.00  0.00     0.051 C 
HETATM   11  C   UNL     1      59.828   8.193   0.555  1.00  0.00     0.068 C 
HETATM   12  H   UNL     1      60.224  10.075   2.518  1.00  0.00     0.166 HD
ENDROOT
BRANCH   7  13
HETATM   13  C   UNL     1      65.433   8.229   5.584  1.00  0.00     0.209 C 
HETATM   14  O   UNL     1      66.589   8.474   5.292  1.00  0.00    -0.644 OA
HETATM   15  O   UNL     1      65.126   7.606   6.736  1.00  0.00    -0.644 OA
ENDBRANCH   7  13
TORSDOF 1
ENDMDL
MODEL 2
REMARK VINA RESULT:      -5.4      1.468      2.744
REMARK  1 active torsions:
REMARK  status: ('A' for Active; 'I' for Inactive)
REMARK    1  A    between atoms: C_7  and  C_8 
ROOT
HETATM    1  N   UNL     1      62.840   7.372   2.145  1.00  0.00    -0.359 N 
HETATM    2  C   UNL     1      63.629   8.439   3.931  1.00  0.00    -0.001 A 
HETATM    3  C   UNL     1      62.572   9.220   3.360  1.00  0.00    -0.027 A 
HETATM    4  C   UNL     1      62.113   8.532   2.248  1.00  0.00     0.012 A 
HETATM    5  C   UNL     1      63.766   7.288   3.157  1.00  0.00     0.043 A 
HETATM    6  C   UNL     1      64.482   8.613   5.040  1.00  0.00     0.032 A 
HETATM    7  C   UNL     1      65.443   7.631   5.334  1.00  0.00     0.041 A 
HETATM    8  C   UNL     1      64.706   6.290   3.438  1.00  0.00     0.031 A 
HETATM    9  C   UNL     1      65.543   6.483   4.544  1.00  0.00     0.021 A 
HETATM   10  C   UNL     1      62.079  10.525   3.877  1.00  0.00     0.051 C 
HETATM   11  C   UNL     1      61.048   8.873   1.269  1.00  0.00     0.068 C 
HETATM   12  H   UNL     1      62.714   6.693   1.442  1.00  0.00     0.166 HD
ENDROOT
BRANCH   7  13
HETATM   13  C   UNL     1      66.378   7.780   6.476  1.00  0.00     0.209 C 
HETATM   14  O   UNL     1      66.964   6.875   7.042  1.00  0.00    -0.644 OA
HETATM   15  O   UNL     1      66.548   9.059   6.855  1.00  0.00    -0.644 OA
ENDBRANCH   7  13
TORSDOF 1
ENDMDL
MODEL 3
REMARK VINA RESULT:      -5.3      2.912      4.805
REMARK  1 active torsions:
REMARK  status: ('A' for Active; 'I' for Inactive)
REMARK    1  A    between atoms: C_7  and  C_8 
ROOT
HETATM    1  N   UNL     1      65.144   5.861   3.180  1.00  0.00    -0.359 N 
HETATM    2  C   UNL     1      65.182   7.629   4.531  1.00  0.00    -0.001 A 
HETATM    3  C   UNL     1      66.366   6.855   4.755  1.00  0.00    -0.027 A 
HETATM    4  C   UNL     1      66.304   5.761   3.907  1.00  0.00     0.012 A 
HETATM    5  C   UNL     1      64.444   6.990   3.536  1.00  0.00     0.043 A 
HETATM    6  C   UNL     1      64.672   8.820   5.090  1.00  0.00     0.032 A 
HETATM    7  C   UNL     1      63.443   9.326   4.635  1.00  0.00     0.041 A 
HETATM    8  C   UNL     1      63.224   7.482   3.058  1.00  0.00     0.031 A 
HETATM    9  C   UNL     1      62.737   8.664   3.627  1.00  0.00     0.021 A 
HETATM   10  C   UNL     1      67.445   7.181   5.725  1.00  0.00     0.051 C 
HETATM   11  C   UNL     1      67.242   4.624   3.722  1.00  0.00     0.068 C 
HETATM   12  H   UNL     1      64.854   5.214   2.497  1.00  0.00     0.166 HD
ENDROOT
BRANCH   7  13
HETATM   13  C   UNL     1      62.855  10.561   5.208  1.00  0.00     0.209 C 
HETATM   14  O   UNL     1      63.154  11.067   6.274  1.00  0.00    -0.644 OA
HETATM   15  O   UNL     1      61.921  11.118   4.415  1.00  0.00    -0.644 OA
ENDBRANCH   7  13
TORSDOF 1
ENDMDL
MODEL 4
REMARK VINA RESULT:      -5.2      2.536      3.696
REMARK  1 active torsions:
REMARK  status: ('A' for Active; 'I' for Inactive)
REMARK    1  A    between atoms: C_7  and  C_8 
ROOT
HETATM    1  N   UNL     1      63.099   6.608   1.445  1.00  0.00    -0.359 N 
HETATM    2  C   UNL     1      63.583   7.667   3.341  1.00  0.00    -0.001 A 
HETATM    3  C   UNL     1      64.284   6.418   3.321  1.00  0.00    -0.027 A 
HETATM    4  C   UNL     1      63.952   5.783   2.135  1.00  0.00     0.012 A 
HETATM    5  C   UNL     1      62.860   7.762   2.153  1.00  0.00     0.043 A 
HETATM    6  C   UNL     1      63.501   8.727   4.268  1.00  0.00     0.032 A 
HETATM    7  C   UNL     1      62.697   9.841   3.975  1.00  0.00     0.041 A 
HETATM    8  C   UNL     1      62.064   8.867   1.833  1.00  0.00     0.031 A 
HETATM    9  C   UNL     1      61.996   9.907   2.768  1.00  0.00     0.021 A 
HETATM   10  C   UNL     1      65.190   5.914   4.388  1.00  0.00     0.051 C 
HETATM   11  C   UNL     1      64.366   4.463   1.593  1.00  0.00     0.068 C 
HETATM   12  H   UNL     1      62.711   6.401   0.564  1.00  0.00     0.166 HD
ENDROOT
BRANCH   7  13
HETATM   13  C   UNL     1      62.560  10.969   4.928  1.00  0.00     0.209 C 
HETATM   14  O   UNL     1      63.007  11.006   6.060  1.00  0.00    -0.644 OA
HETATM   15  O   UNL     1      61.875  12.009   4.419  1.00  0.00    -0.644 OA
ENDBRANCH   7  13
TORSDOF 1
ENDMDL
MODEL 5
REMARK VINA RESULT:      -5.0      3.172      5.008
REMARK  1 active torsions:
REMARK  status: ('A' for Active; 'I' for Inactive)
REMARK    1  A    between atoms: C_7  and  C_8 
ROOT
HETATM    1  N   UNL     1      63.255   5.929   5.691  1.00  0.00    -0.359 N 
HETATM    2  C   UNL     1      63.763   8.017   5.114  1.00  0.00    -0.001 A 
HETATM    3  C   UNL     1      64.867   7.459   5.836  1.00  0.00    -0.027 A 
HETATM    4  C   UNL     1      64.513   6.166   6.187  1.00  0.00     0.012 A 
HETATM    5  C   UNL     1      62.777   7.037   5.031  1.00  0.00     0.043 A 
HETATM    6  C   UNL     1      63.517   9.275   4.524  1.00  0.00     0.032 A 
HETATM    7  C   UNL     1      62.293   9.506   3.875  1.00  0.00     0.041 A 
HETATM    8  C   UNL     1      61.556   7.239   4.378  1.00  0.00     0.031 A 
HETATM    9  C   UNL     1      61.332   8.494   3.800  1.00  0.00     0.021 A 
HETATM   10  C   UNL     1      66.145   8.157   6.145  1.00  0.00     0.051 C 
HETATM   11  C   UNL     1      65.255   5.132   6.953  1.00  0.00     0.068 C 
HETATM   12  H   UNL     1      62.763   5.082   5.794  1.00  0.00     0.166 HD
ENDROOT
BRANCH   7  13
HETATM   13  C   UNL     1      61.979  10.818   3.259  1.00  0.00     0.209 C 
HETATM   14  O   UNL     1      61.843  11.034   2.069  1.00  0.00    -0.644 OA
HETATM   15  O   UNL     1      61.838  11.804   4.163  1.00  0.00    -0.644 OA
ENDBRANCH   7  13
TORSDOF 1
ENDMDL
MODEL 6
REMARK VINA RESULT:      -5.0      3.147      4.261
REMARK  1 active torsions:
REMARK  status: ('A' for Active; 'I' for Inactive)
REMARK    1  A    between atoms: C_7  and  C_8 
ROOT
HETATM    1  N   UNL     1      61.580   5.857   1.627  1.00  0.00    -0.359 N 
HETATM    2  C   UNL     1      61.556   7.501   3.126  1.00  0.00    -0.001 A 
HETATM    3  C   UNL     1      61.370   6.256   3.808  1.00  0.00    -0.027 A 
HETATM    4  C   UNL     1      61.380   5.258   2.846  1.00  0.00     0.012 A 
HETATM    5  C   UNL     1      61.694   7.220   1.767  1.00  0.00     0.043 A 
HETATM    6  C   UNL     1      61.619   8.846   3.546  1.00  0.00     0.032 A 
HETATM    7  C   UNL     1      61.814   9.860   2.594  1.00  0.00     0.041 A 
HETATM    8  C   UNL     1      61.904   8.211   0.802  1.00  0.00     0.031 A 
HETATM    9  C   UNL     1      61.961   9.539   1.242  1.00  0.00     0.021 A 
HETATM   10  C   UNL     1      61.196   6.087   5.276  1.00  0.00     0.051 C 
HETATM   11  C   UNL     1      61.216   3.787   2.973  1.00  0.00     0.068 C 
HETATM   12  H   UNL     1      61.635   5.375   0.770  1.00  0.00     0.166 HD
ENDROOT
BRANCH   7  13
HETATM   13  C   UNL     1      61.864  11.290   2.984  1.00  0.00     0.209 C 
HETATM   14  O   UNL     1      61.761  11.725   4.116  1.00  0.00    -0.644 OA
HETATM   15  O   UNL     1      62.050  12.116   1.938  1.00  0.00    -0.644 OA
ENDBRANCH   7  13
TORSDOF 1
ENDMDL
MODEL 7
REMARK VINA RESULT:      -4.9      3.530      5.579
REMARK  1 active torsions:
REMARK  status: ('A' for Active; 'I' for Inactive)
REMARK    1  A    between atoms: C_7  and  C_8 
ROOT
HETATM    1  N   UNL     1      65.331   6.125   7.008  1.00  0.00    -0.359 N 
HETATM    2  C   UNL     1      65.243   7.773   5.516  1.00  0.00    -0.001 A 
HETATM    3  C   UNL     1      66.613   7.406   5.714  1.00  0.00    -0.027 A 
HETATM    4  C   UNL     1      66.631   6.388   6.653  1.00  0.00     0.012 A 
HETATM    5  C   UNL     1      64.466   6.951   6.329  1.00  0.00     0.043 A 
HETATM    6  C   UNL     1      64.596   8.737   4.714  1.00  0.00     0.032 A 
HETATM    7  C   UNL     1      63.196   8.844   4.757  1.00  0.00     0.041 A 
HETATM    8  C   UNL     1      63.070   7.029   6.378  1.00  0.00     0.031 A 
HETATM    9  C   UNL     1      62.448   7.993   5.575  1.00  0.00     0.021 A 
HETATM   10  C   UNL     1      67.785   8.020   5.031  1.00  0.00     0.051 C 
HETATM   11  C   UNL     1      67.767   5.639   7.250  1.00  0.00     0.068 C 
HETATM   12  H   UNL     1      65.056   5.440   7.659  1.00  0.00     0.166 HD
ENDROOT
BRANCH   7  13
HETATM   13  C   UNL     1      62.472   9.856   3.951  1.00  0.00     0.209 C 
HETATM   14  O   UNL     1      62.075  10.936   4.349  1.00  0.00    -0.644 OA
HETATM   15  O   UNL     1      62.282   9.477   2.674  1.00  0.00    -0.644 OA
ENDBRANCH   7  13
TORSDOF 1
ENDMDL
MODEL 8
REMARK VINA RESULT:      -4.5      2.196      2.367
REMARK  1 active torsions:
REMARK  status: ('A' for Active; 'I' for Inactive)
REMARK    1  A    between atoms: C_7  and  C_8 
ROOT
HETATM    1  N   UNL     1      60.155   8.538   3.255  1.00  0.00    -0.359 N 
HETATM    2  C   UNL     1      61.448   7.336   4.609  1.00  0.00    -0.001 A 
HETATM    3  C   UNL     1      60.169   6.698   4.510  1.00  0.00    -0.027 A 
HETATM    4  C   UNL     1      59.390   7.477   3.670  1.00  0.00     0.012 A 
HETATM    5  C   UNL     1      61.413   8.475   3.807  1.00  0.00     0.043 A 
HETATM    6  C   UNL     1      62.635   7.041   5.313  1.00  0.00     0.032 A 
HETATM    7  C   UNL     1      63.741   7.899   5.191  1.00  0.00     0.041 A 
HETATM    8  C   UNL     1      62.506   9.337   3.660  1.00  0.00     0.031 A 
HETATM    9  C   UNL     1      63.673   9.026   4.368  1.00  0.00     0.021 A 
HETATM   10  C   UNL     1      59.772   5.438   5.194  1.00  0.00     0.051 C 
HETATM   11  C   UNL     1      57.982   7.312   3.224  1.00  0.00     0.068 C 
HETATM   12  H   UNL     1      59.846   9.247   2.645  1.00  0.00     0.166 HD
ENDROOT
BRANCH   7  13
HETATM   13  C   UNL     1      65.003   7.645   5.929  1.00  0.00     0.209 C 
HETATM   14  O   UNL     1      65.377   6.567   6.352  1.00  0.00    -0.644 OA
HETATM   15  O   UNL     1      65.747   8.752   6.097  1.00  0.00    -0.644 OA
ENDBRANCH   7  13
TORSDOF 1
ENDMDL
MODEL 9
REMARK VINA RESULT:      -4.5      1.888      2.153
REMARK  1 active torsions:
REMARK  status: ('A' for Active; 'I' for Inactive)
REMARK    1  A    between atoms: C_7  and  C_8 
ROOT
HETATM    1  N   UNL     1      60.697   6.237   2.837  1.00  0.00    -0.359 N 
HETATM    2  C   UNL     1      62.174   7.900   2.892  1.00  0.00    -0.001 A 
HETATM    3  C   UNL     1      61.712   7.742   1.546  1.00  0.00    -0.027 A 
HETATM    4  C   UNL     1      60.804   6.695   1.547  1.00  0.00     0.012 A 
HETATM    5  C   UNL     1      61.516   6.954   3.676  1.00  0.00     0.043 A 
HETATM    6  C   UNL     1      63.098   8.767   3.512  1.00  0.00     0.032 A 
HETATM    7  C   UNL     1      63.331   8.655   4.893  1.00  0.00     0.041 A 
HETATM    8  C   UNL     1      61.722   6.833   5.055  1.00  0.00     0.031 A 
HETATM    9  C   UNL     1      62.644   7.703   5.650  1.00  0.00     0.021 A 
HETATM   10  C   UNL     1      62.142   8.557   0.378  1.00  0.00     0.051 C 
HETATM   11  C   UNL     1      60.028   6.083   0.437  1.00  0.00     0.068 C 
HETATM   12  H   UNL     1      60.113   5.497   3.121  1.00  0.00     0.166 HD
ENDROOT
BRANCH   7  13
HETATM   13  C   UNL     1      64.309   9.528   5.586  1.00  0.00     0.209 C 
HETATM   14  O   UNL     1      64.122  10.682   5.925  1.00  0.00    -0.644 OA
HETATM   15  O   UNL     1      65.480   8.914   5.835  1.00  0.00    -0.644 OA
ENDBRANCH   7  13
TORSDOF 1
ENDMDL
