MODEL 1
REMARK VINA RESULT:      -6.2      0.000      0.000
REMARK  2 active torsions:
REMARK  status: ('A' for Active; 'I' for Inactive)
REMARK       I    between atoms: C_1  and  N_2 
REMARK       I    between atoms: C_1  and  N_6 
REMARK    1  A    between atoms: C_7  and  C_10 
REMARK    2  A    between atoms: C_7  and  C_11 
ROOT
HETATM    1  C   UNL     1      66.602   5.991   8.207  1.00  0.00     0.667 C 
HETATM    2  N   UNL     1      65.944   6.320   6.965  1.00  0.00    -0.219 N 
HETATM    3  N   UNL     1      66.386   4.869   8.804  1.00  0.00    -0.235 N 
HETATM    4  C   UNL     1      64.650   5.755   6.583  1.00  0.00     0.141 C 
HETATM    5  C   UNL     1      66.536   7.254   6.016  1.00  0.00     0.141 C 
HETATM    6  N   UNL     1      67.525   6.893   8.806  1.00  0.00    -0.235 N 
HETATM    7  C   UNL     1      65.580   8.420   5.778  1.00  0.00     0.025 C 
HETATM    8  C   UNL     1      63.652   6.899   6.325  1.00  0.00     0.025 C 
HETATM    9  C   UNL     1      64.218   7.885   5.281  1.00  0.00    -0.007 C 
HETATM   10  H   UNL     1      65.754   4.219   8.418  1.00  0.00     0.174 HD
HETATM   11  H   UNL     1      66.854   4.660   9.645  1.00  0.00     0.174 HD
HETATM   12  H   UNL     1      67.716   7.759   8.379  1.00  0.00     0.174 HD
HETATM   13  H   UNL     1      67.974   6.650   9.648  1.00  0.00     0.174 HD
ENDROOT
BRANCH   9  14
HETATM   14  C   UNL     1      63.227   9.041   5.015  1.00  0.00     0.043 C 
BRANCH  14  15
HETATM   15  C   UNL     1      62.753   9.057   3.578  1.00  0.00    -0.058 A 
HETATM   16  C   UNL     1      62.910   7.921   2.763  1.00  0.00     0.007 A 
HETATM   17  C   UNL     1      62.493   7.945   1.429  1.00  0.00     0.001 A 
HETATM   18  C   UNL     1      61.912   9.098   0.898  1.00  0.00     0.000 A 
HETATM   19  C   UNL     1      61.746  10.231   1.699  1.00  0.00     0.001 A 
HETATM   20  C   UNL     1      62.164  10.212   3.034  1.00  0.00     0.007 A 
ENDBRANCH  14  15
ENDBRANCH   9  14
TORSDOF 2
ENDMDL
MODEL 2
REMARK VINA RESULT:      -5.6      0.744      1.947
REMARK  2 active torsions:
REMARK  status: ('A' for Active; 'I' for Inactive)
REMARK       I    between atoms: C_1  and  N_2 
REMARK       I    between atoms: C_1  and  N_6 
REMARK    1  A    between atoms: C_7  and  C_10 
REMARK    2  A    between atoms: C_7  and  C_11 
ROOT
HETATM    1  C   UNL     1      66.941   5.946   7.907  1.00  0.00     0.667 C 
HETATM    2  N   UNL     1      65.995   6.734   7.154  1.00  0.00    -0.219 N 
HETATM    3  N   UNL     1      68.064   6.442   8.302  1.00  0.00    -0.235 N 
HETATM    4  C   UNL     1      66.397   7.868   6.322  1.00  0.00     0.141 C 
HETATM    5  C   UNL     1      64.570   6.432   7.173  1.00  0.00     0.141 C 
HETATM    6  N   UNL     1      66.657   4.595   8.251  1.00  0.00    -0.235 N 
HETATM    7  C   UNL     1      64.085   6.153   5.753  1.00  0.00     0.025 C 
HETATM    8  C   UNL     1      65.920   7.634   4.877  1.00  0.00     0.025 C 
HETATM    9  C   UNL     1      64.401   7.364   4.846  1.00  0.00    -0.007 C 
HETATM   10  H   UNL     1      68.295   7.375   8.083  1.00  0.00     0.174 HD
HETATM   11  H   UNL     1      68.690   5.890   8.824  1.00  0.00     0.174 HD
HETATM   12  H   UNL     1      65.809   4.182   7.967  1.00  0.00     0.174 HD
HETATM   13  H   UNL     1      67.308   4.073   8.774  1.00  0.00     0.174 HD
ENDROOT
BRANCH   9  14
HETATM   14  C   UNL     1      63.910   7.121   3.401  1.00  0.00     0.043 C 
BRANCH  14  15
HETATM   15  C   UNL     1      63.071   8.274   2.891  1.00  0.00    -0.058 A 
HETATM   16  C   UNL     1      62.606   8.285   1.564  1.00  0.00     0.007 A 
HETATM   17  C   UNL     1      61.851   9.362   1.089  1.00  0.00     0.001 A 
HETATM   18  C   UNL     1      61.551  10.433   1.932  1.00  0.00     0.000 A 
HETATM   19  C   UNL     1      62.002  10.430   3.254  1.00  0.00     0.001 A 
HETATM   20  C   UNL     1      62.759   9.356   3.733  1.00  0.00     0.007 A 
ENDBRANCH  14  15
ENDBRANCH   9  14
TORSDOF 2
ENDMDL
MODEL 3
REMARK VINA RESULT:      -5.4      3.204      6.758
REMARK  2 active torsions:
REMARK  status: ('A' for Active; 'I' for Inactive)
REMARK       I    between atoms: C_1  and  N_2 
REMARK       I    between atoms: C_1  and  N_6 
REMARK    1  A    between atoms: C_7  and  C_10 
REMARK    2  A    between atoms: C_7  and  C_11 
ROOT
HETATM    1  C   UNL     1      61.614   9.357   2.925  1.00  0.00     0.667 C 
HETATM    2  N   UNL     1      62.409   8.610   3.870  1.00  0.00    -0.219 N 
HETATM    3  N   UNL     1      60.786   8.767   2.131  1.00  0.00    -0.235 N 
HETATM    4  C   UNL     1      62.780   7.211   3.659  1.00  0.00     0.141 C 
HETATM    5  C   UNL     1      62.901   9.221   5.098  1.00  0.00     0.141 C 
HETATM    6  N   UNL     1      61.708  10.775   2.849  1.00  0.00    -0.235 N 
HETATM    7  C   UNL     1      64.425   9.141   5.136  1.00  0.00     0.025 C 
HETATM    8  C   UNL     1      64.313   7.080   3.698  1.00  0.00     0.025 C 
HETATM    9  C   UNL     1      64.873   7.667   5.011  1.00  0.00    -0.007 C 
HETATM   10  H   UNL     1      60.694   7.786   2.154  1.00  0.00     0.174 HD
HETATM   11  H   UNL     1      60.245   9.297   1.500  1.00  0.00     0.174 HD
HETATM   12  H   UNL     1      62.328  11.259   3.440  1.00  0.00     0.174 HD
HETATM   13  H   UNL     1      61.151  11.271   2.206  1.00  0.00     0.174 HD
ENDROOT
BRANCH   9  14
HETATM   14  C   UNL     1      66.413   7.547   5.061  1.00  0.00     0.043 C 
BRANCH  14  15
HETATM   15  C   UNL     1      66.879   6.795   6.289  1.00  0.00    -0.058 A 
HETATM   16  C   UNL     1      66.582   7.279   7.576  1.00  0.00     0.007 A 
HETATM   17  C   UNL     1      67.033   6.596   8.710  1.00  0.00     0.001 A 
HETATM   18  C   UNL     1      67.778   5.424   8.570  1.00  0.00     0.000 A 
HETATM   19  C   UNL     1      68.074   4.930   7.297  1.00  0.00     0.001 A 
HETATM   20  C   UNL     1      67.627   5.611   6.161  1.00  0.00     0.007 A 
ENDBRANCH  14  15
ENDBRANCH   9  14
TORSDOF 2
ENDMDL
MODEL 4
REMARK VINA RESULT:      -5.0      1.267      1.977
REMARK  2 active torsions:
REMARK  status: ('A' for Active; 'I' for Inactive)
REMARK       I    between atoms: C_1  and  N_2 
REMARK       I    between atoms: C_1  and  N_6 
REMARK    1  A    between atoms: C_7  and  C_10 
REMARK    2  A    between atoms: C_7  and  C_11 
ROOT
HETATM    1  C   UNL     1      66.622   7.338   7.238  1.00  0.00     0.667 C 
HETATM    2  N   UNL     1      65.905   6.627   6.207  1.00  0.00    -0.219 N 
HETATM    3  N   UNL     1      66.904   6.780   8.366  1.00  0.00    -0.235 N 
HETATM    4  C   UNL     1      64.990   5.525   6.497  1.00  0.00     0.141 C 
HETATM    5  C   UNL     1      66.050   6.982   4.800  1.00  0.00     0.141 C 
HETATM    6  N   UNL     1      67.054   8.679   7.037  1.00  0.00    -0.235 N 
HETATM    7  C   UNL     1      64.687   7.355   4.222  1.00  0.00     0.025 C 
HETATM    8  C   UNL     1      63.599   5.854   5.924  1.00  0.00     0.025 C 
HETATM    9  C   UNL     1      63.699   6.183   4.419  1.00  0.00    -0.007 C 
HETATM   10  H   UNL     1      66.621   5.852   8.541  1.00  0.00     0.174 HD
HETATM   11  H   UNL     1      67.403   7.280   9.052  1.00  0.00     0.174 HD
HETATM   12  H   UNL     1      66.858   9.138   6.189  1.00  0.00     0.174 HD
HETATM   13  H   UNL     1      67.551   9.147   7.747  1.00  0.00     0.174 HD
ENDROOT
BRANCH   9  14
HETATM   14  C   UNL     1      62.309   6.520   3.831  1.00  0.00     0.043 C 
BRANCH  14  15
HETATM   15  C   UNL     1      62.219   7.967   3.397  1.00  0.00    -0.058 A 
HETATM   16  C   UNL     1      62.186   8.997   4.354  1.00  0.00     0.007 A 
HETATM   17  C   UNL     1      62.079  10.332   3.951  1.00  0.00     0.001 A 
HETATM   18  C   UNL     1      62.008  10.651   2.594  1.00  0.00     0.000 A 
HETATM   19  C   UNL     1      62.046   9.636   1.634  1.00  0.00     0.001 A 
HETATM   20  C   UNL     1      62.151   8.300   2.032  1.00  0.00     0.007 A 
ENDBRANCH  14  15
ENDBRANCH   9  14
TORSDOF 2
ENDMDL
MODEL 5
REMARK VINA RESULT:      -4.9      5.010      7.077
REMARK  2 active torsions:
REMARK  status: ('A' for Active; 'I' for Inactive)
REMARK       I    between atoms: C_1  and  N_2 
REMARK       I    between atoms: C_1  and  N_6 
REMARK    1  A    between atoms: C_7  and  C_10 
REMARK    2  A    between atoms: C_7  and  C_11 
ROOT
HETATM    1  C   UNL     1      56.971   6.690   2.878  1.00  0.00     0.667 C 
HETATM    2  N   UNL     1      58.273   6.700   2.257  1.00  0.00    -0.219 N 
HETATM    3  N   UNL     1      55.901   6.479   2.190  1.00  0.00    -0.235 N 
HETATM    4  C   UNL     1      58.473   7.033   0.847  1.00  0.00     0.141 C 
HETATM    5  C   UNL     1      59.478   6.384   3.014  1.00  0.00     0.141 C 
HETATM    6  N   UNL     1      56.827   6.901   4.278  1.00  0.00    -0.235 N 
HETATM    7  C   UNL     1      60.445   7.563   2.955  1.00  0.00     0.025 C 
HETATM    8  C   UNL     1      59.452   8.216   0.737  1.00  0.00     0.025 C 
HETATM    9  C   UNL     1      60.767   7.901   1.482  1.00  0.00    -0.007 C 
HETATM   10  H   UNL     1      55.961   6.329   1.218  1.00  0.00     0.174 HD
HETATM   11  H   UNL     1      55.023   6.466   2.636  1.00  0.00     0.174 HD
HETATM   12  H   UNL     1      57.622   7.065   4.836  1.00  0.00     0.174 HD
HETATM   13  H   UNL     1      55.933   6.881   4.689  1.00  0.00     0.174 HD
ENDROOT
BRANCH   9  14
HETATM   14  C   UNL     1      61.758   9.084   1.384  1.00  0.00     0.043 C 
BRANCH  14  15
HETATM   15  C   UNL     1      62.262   9.509   2.746  1.00  0.00    -0.058 A 
HETATM   16  C   UNL     1      63.107   8.664   3.488  1.00  0.00     0.007 A 
HETATM   17  C   UNL     1      63.554   9.049   4.756  1.00  0.00     0.001 A 
HETATM   18  C   UNL     1      63.166  10.278   5.293  1.00  0.00     0.000 A 
HETATM   19  C   UNL     1      62.331  11.128   4.562  1.00  0.00     0.001 A 
HETATM   20  C   UNL     1      61.881  10.747   3.294  1.00  0.00     0.007 A 
ENDBRANCH  14  15
ENDBRANCH   9  14
TORSDOF 2
ENDMDL
MODEL 6
REMARK VINA RESULT:      -4.9      4.070      5.131
REMARK  2 active torsions:
REMARK  status: ('A' for Active; 'I' for Inactive)
REMARK       I    between atoms: C_1  and  N_2 
REMARK       I    between atoms: C_1  and  N_6 
REMARK    1  A    between atoms: C_7  and  C_10 
REMARK    2  A    between atoms: C_7  and  C_11 
ROOT
HETATM    1  C   UNL     1      58.269   5.669   6.540  1.00  0.00     0.667 C 
HETATM    2  N   UNL     1      59.482   5.699   5.760  1.00  0.00    -0.219 N 
HETATM    3  N   UNL     1      57.111   5.586   5.978  1.00  0.00    -0.235 N 
HETATM    4  C   UNL     1      59.524   6.192   4.384  1.00  0.00     0.141 C 
HETATM    5  C   UNL     1      60.752   5.245   6.313  1.00  0.00     0.141 C 
HETATM    6  N   UNL     1      58.312   5.715   7.962  1.00  0.00    -0.235 N 
HETATM    7  C   UNL     1      61.769   6.381   6.264  1.00  0.00     0.025 C 
HETATM    8  C   UNL     1      60.547   7.338   4.284  1.00  0.00     0.025 C 
HETATM    9  C   UNL     1      61.924   6.881   4.810  1.00  0.00    -0.007 C 
HETATM   10  H   UNL     1      57.042   5.552   4.996  1.00  0.00     0.174 HD
HETATM   11  H   UNL     1      56.296   5.556   6.530  1.00  0.00     0.174 HD
HETATM   12  H   UNL     1      59.178   5.777   8.427  1.00  0.00     0.174 HD
HETATM   13  H   UNL     1      57.476   5.683   8.481  1.00  0.00     0.174 HD
ENDROOT
BRANCH   9  14
HETATM   14  C   UNL     1      62.960   8.025   4.720  1.00  0.00     0.043 C 
BRANCH  14  15
HETATM   15  C   UNL     1      62.543   9.084   3.723  1.00  0.00    -0.058 A 
HETATM   16  C   UNL     1      62.499   8.791   2.348  1.00  0.00     0.007 A 
HETATM   17  C   UNL     1      62.135   9.778   1.426  1.00  0.00     0.001 A 
HETATM   18  C   UNL     1      61.810  11.062   1.867  1.00  0.00     0.000 A 
HETATM   19  C   UNL     1      61.844  11.363   3.231  1.00  0.00     0.001 A 
HETATM   20  C   UNL     1      62.209  10.380   4.156  1.00  0.00     0.007 A 
ENDBRANCH  14  15
ENDBRANCH   9  14
TORSDOF 2
ENDMDL
MODEL 7
REMARK VINA RESULT:      -4.8      3.643      6.373
REMARK  2 active torsions:
REMARK  status: ('A' for Active; 'I' for Inactive)
REMARK       I    between atoms: C_1  and  N_2 
REMARK       I    between atoms: C_1  and  N_6 
REMARK    1  A    between atoms: C_7  and  C_10 
REMARK    2  A    between atoms: C_7  and  C_11 
ROOT
HETATM    1  C   UNL     1      59.416   7.407   3.469  1.00  0.00     0.667 C 
HETATM    2  N   UNL     1      60.846   7.489   3.295  1.00  0.00    -0.219 N 
HETATM    3  N   UNL     1      58.607   8.020   2.673  1.00  0.00    -0.235 N 
HETATM    4  C   UNL     1      61.499   8.624   2.645  1.00  0.00     0.141 C 
HETATM    5  C   UNL     1      61.731   6.434   3.773  1.00  0.00     0.141 C 
HETATM    6  N   UNL     1      58.850   6.632   4.520  1.00  0.00    -0.235 N 
HETATM    7  C   UNL     1      62.732   7.016   4.767  1.00  0.00     0.025 C 
HETATM    8  C   UNL     1      62.528   9.240   3.610  1.00  0.00     0.025 C 
HETATM    9  C   UNL     1      63.521   8.166   4.100  1.00  0.00    -0.007 C 
HETATM   10  H   UNL     1      58.962   8.566   1.934  1.00  0.00     0.174 HD
HETATM   11  H   UNL     1      57.634   7.942   2.804  1.00  0.00     0.174 HD
HETATM   12  H   UNL     1      59.437   6.149   5.147  1.00  0.00     0.174 HD
HETATM   13  H   UNL     1      57.872   6.578   4.619  1.00  0.00     0.174 HD
ENDROOT
BRANCH   9  14
HETATM   14  C   UNL     1      64.558   8.770   5.075  1.00  0.00     0.043 C 
BRANCH  14  15
HETATM   15  C   UNL     1      65.668   7.792   5.393  1.00  0.00    -0.058 A 
HETATM   16  C   UNL     1      66.315   7.088   4.361  1.00  0.00     0.007 A 
HETATM   17  C   UNL     1      67.325   6.168   4.659  1.00  0.00     0.001 A 
HETATM   18  C   UNL     1      67.700   5.945   5.985  1.00  0.00     0.000 A 
HETATM   19  C   UNL     1      67.069   6.642   7.018  1.00  0.00     0.001 A 
HETATM   20  C   UNL     1      66.057   7.562   6.725  1.00  0.00     0.007 A 
ENDBRANCH  14  15
ENDBRANCH   9  14
TORSDOF 2
ENDMDL
MODEL 8
REMARK VINA RESULT:      -4.7     10.751     12.534
REMARK  2 active torsions:
REMARK  status: ('A' for Active; 'I' for Inactive)
REMARK       I    between atoms: C_1  and  N_2 
REMARK       I    between atoms: C_1  and  N_6 
REMARK    1  A    between atoms: C_7  and  C_10 
REMARK    2  A    between atoms: C_7  and  C_11 
ROOT
HETATM    1  C   UNL     1      56.147   2.421  13.321  1.00  0.00     0.667 C 
HETATM    2  N   UNL     1      57.561   2.134  13.266  1.00  0.00    -0.219 N 
HETATM    3  N   UNL     1      55.569   2.738  14.429  1.00  0.00    -0.235 N 
HETATM    4  C   UNL     1      58.311   1.636  14.418  1.00  0.00     0.141 C 
HETATM    5  C   UNL     1      58.326   2.320  12.040  1.00  0.00     0.141 C 
HETATM    6  N   UNL     1      55.346   2.376  12.145  1.00  0.00    -0.235 N 
HETATM    7  C   UNL     1      58.968   0.997  11.630  1.00  0.00     0.025 C 
HETATM    8  C   UNL     1      58.984   0.302  14.048  1.00  0.00     0.025 C 
HETATM    9  C   UNL     1      59.851   0.467  12.783  1.00  0.00    -0.007 C 
HETATM   10  H   UNL     1      56.091   2.779  15.263  1.00  0.00     0.174 HD
HETATM   11  H   UNL     1      54.605   2.939  14.441  1.00  0.00     0.174 HD
HETATM   12  H   UNL     1      55.753   2.138  11.280  1.00  0.00     0.174 HD
HETATM   13  H   UNL     1      54.386   2.584  12.196  1.00  0.00     0.174 HD
ENDROOT
BRANCH   9  14
HETATM   14  C   UNL     1      60.530  -0.868  12.397  1.00  0.00     0.043 C 
BRANCH  14  15
HETATM   15  C   UNL     1      61.976  -0.668  11.994  1.00  0.00    -0.058 A 
HETATM   16  C   UNL     1      62.311  -0.392  10.656  1.00  0.00     0.007 A 
HETATM   17  C   UNL     1      63.649  -0.230  10.283  1.00  0.00     0.001 A 
HETATM   18  C   UNL     1      64.661  -0.337  11.239  1.00  0.00     0.000 A 
HETATM   19  C   UNL     1      64.339  -0.605  12.571  1.00  0.00     0.001 A 
HETATM   20  C   UNL     1      63.003  -0.769  12.950  1.00  0.00     0.007 A 
ENDBRANCH  14  15
ENDBRANCH   9  14
TORSDOF 2
ENDMDL
MODEL 9
REMARK VINA RESULT:      -4.6      4.393      5.502
REMARK  2 active torsions:
REMARK  status: ('A' for Active; 'I' for Inactive)
REMARK       I    between atoms: C_1  and  N_2 
REMARK       I    between atoms: C_1  and  N_6 
REMARK    1  A    between atoms: C_7  and  C_10 
REMARK    2  A    between atoms: C_7  and  C_11 
ROOT
HETATM    1  C   UNL     1      58.342   4.120   6.896  1.00  0.00     0.667 C 
HETATM    2  N   UNL     1      58.994   5.349   6.513  1.00  0.00    -0.219 N 
HETATM    3  N   UNL     1      58.306   3.735   8.126  1.00  0.00    -0.235 N 
HETATM    4  C   UNL     1      60.085   5.939   7.287  1.00  0.00     0.141 C 
HETATM    5  C   UNL     1      58.601   6.074   5.311  1.00  0.00     0.141 C 
HETATM    6  N   UNL     1      57.705   3.297   5.926  1.00  0.00    -0.235 N 
HETATM    7  C   UNL     1      59.801   6.210   4.378  1.00  0.00     0.025 C 
HETATM    8  C   UNL     1      61.320   6.104   6.381  1.00  0.00     0.025 C 
HETATM    9  C   UNL     1      60.960   6.916   5.119  1.00  0.00    -0.007 C 
HETATM   10  H   UNL     1      58.736   4.279   8.826  1.00  0.00     0.174 HD
HETATM   11  H   UNL     1      57.846   2.898   8.367  1.00  0.00     0.174 HD
HETATM   12  H   UNL     1      57.712   3.559   4.976  1.00  0.00     0.174 HD
HETATM   13  H   UNL     1      57.256   2.466   6.204  1.00  0.00     0.174 HD
ENDROOT
BRANCH   9  14
HETATM   14  C   UNL     1      62.190   7.085   4.198  1.00  0.00     0.043 C 
BRANCH  14  15
HETATM   15  C   UNL     1      62.117   8.363   3.391  1.00  0.00    -0.058 A 
HETATM   16  C   UNL     1      62.073   9.612   4.036  1.00  0.00     0.007 A 
HETATM   17  C   UNL     1      61.983  10.790   3.289  1.00  0.00     0.001 A 
HETATM   18  C   UNL     1      61.939  10.734   1.895  1.00  0.00     0.000 A 
HETATM   19  C   UNL     1      61.988   9.500   1.243  1.00  0.00     0.001 A 
HETATM   20  C   UNL     1      62.077   8.318   1.986  1.00  0.00     0.007 A 
ENDBRANCH  14  15
ENDBRANCH   9  14
TORSDOF 2
ENDMDL
