MODEL 1
REMARK VINA RESULT:      -4.4      0.000      0.000
REMARK  3 active torsions:
REMARK  status: ('A' for Active; 'I' for Inactive)
REMARK    1  A    between atoms: C_1  and  C_7 
REMARK    2  A    between atoms: C_7  and  O_10 
REMARK    3  A    between atoms: O_10  and  C_12 
ROOT
HETATM    1  C   UNL     1      63.511   8.853   4.738  1.00  0.00     0.105 A 
HETATM    2  N   UNL     1      62.146  10.253   3.439  1.00  0.00    -0.343 N 
ATOM      3  HN  UNL     1      61.605  11.081   3.192  1.00  0.00     0.167 HD
HETATM    4  C   UNL     1      62.846  10.074   4.632  1.00  0.00     0.030 A 
HETATM    5  S   UNL     1      63.231   7.931   3.300  1.00  0.00    -0.052 SA
HETATM    6  C   UNL     1      62.291   9.194   2.687  1.00  0.00     0.146 A 
HETATM    7 CL   UNL     1      61.575   9.064   1.135  1.00  0.00    -0.056 Cl
HETATM    8  C   UNL     1      62.778  11.216   5.587  1.00  0.00     0.070 C 
ENDROOT
BRANCH   1   9
HETATM    9  C   UNL     1      64.342   8.265   5.768  1.00  0.00     0.302 C 
HETATM   10  O   UNL     1      64.041   7.313   6.478  1.00  0.00    -0.259 OA
BRANCH   9  11
HETATM   11  O   UNL     1      65.533   8.919   5.852  1.00  0.00    -0.317 OA
BRANCH  11  12
HETATM   12  C   UNL     1      66.682   8.123   6.177  1.00  0.00     0.174 C 
HETATM   13  C   UNL     1      67.417   7.712   4.915  1.00  0.00     0.034 C 
ENDBRANCH  11  12
ENDBRANCH   9  11
ENDBRANCH   1   9
TORSDOF 3
ENDMDL
MODEL 2
REMARK VINA RESULT:      -4.3      1.100      1.595
REMARK  3 active torsions:
REMARK  status: ('A' for Active; 'I' for Inactive)
REMARK    1  A    between atoms: C_1  and  C_7 
REMARK    2  A    between atoms: C_7  and  O_10 
REMARK    3  A    between atoms: O_10  and  C_12 
ROOT
HETATM    1  C   UNL     1      63.665   8.893   4.539  1.00  0.00     0.105 A 
HETATM    2  N   UNL     1      61.866  10.082   3.612  1.00  0.00    -0.343 N 
ATOM      3  HN  UNL     1      61.175  10.826   3.513  1.00  0.00     0.167 HD
HETATM    4  C   UNL     1      62.832  10.009   4.614  1.00  0.00     0.030 A 
HETATM    5  S   UNL     1      63.198   7.932   3.176  1.00  0.00    -0.052 SA
HETATM    6  C   UNL     1      61.982   9.048   2.820  1.00  0.00     0.146 A 
HETATM    7 CL   UNL     1      60.961   8.811   1.464  1.00  0.00    -0.056 Cl
HETATM    8  C   UNL     1      62.825  11.137   5.588  1.00  0.00     0.070 C 
ENDROOT
BRANCH   1   9
HETATM    9  C   UNL     1      64.777   8.432   5.343  1.00  0.00     0.302 C 
HETATM   10  O   UNL     1      65.964   8.620   5.104  1.00  0.00    -0.259 OA
BRANCH   9  11
HETATM   11  O   UNL     1      64.328   7.746   6.430  1.00  0.00    -0.317 OA
BRANCH  11  12
HETATM   12  C   UNL     1      64.943   6.474   6.687  1.00  0.00     0.174 C 
HETATM   13  C   UNL     1      65.844   6.558   7.904  1.00  0.00     0.034 C 
ENDBRANCH  11  12
ENDBRANCH   9  11
ENDBRANCH   1   9
TORSDOF 3
ENDMDL
MODEL 3
REMARK VINA RESULT:      -4.2      1.716      2.215
REMARK  3 active torsions:
REMARK  status: ('A' for Active; 'I' for Inactive)
REMARK    1  A    between atoms: C_1  and  C_7 
REMARK    2  A    between atoms: C_7  and  O_10 
REMARK    3  A    between atoms: O_10  and  C_12 
ROOT
HETATM    1  C   UNL     1      62.985   8.795   4.615  1.00  0.00     0.105 A 
HETATM    2  N   UNL     1      62.430   9.184   2.369  1.00  0.00    -0.343 N 
ATOM      3  HN  UNL     1      62.294   8.979   1.379  1.00  0.00     0.167 HD
HETATM    4  C   UNL     1      62.879   8.276   3.325  1.00  0.00     0.030 A 
HETATM    5  S   UNL     1      62.508  10.459   4.594  1.00  0.00    -0.052 SA
HETATM    6  C   UNL     1      62.210  10.341   2.936  1.00  0.00     0.146 A 
HETATM    7 CL   UNL     1      61.636  11.699   2.062  1.00  0.00    -0.056 Cl
HETATM    8  C   UNL     1      63.161   6.903   2.817  1.00  0.00     0.070 C 
ENDROOT
BRANCH   1   9
HETATM    9  C   UNL     1      63.392   8.222   5.881  1.00  0.00     0.302 C 
HETATM   10  O   UNL     1      62.650   7.703   6.707  1.00  0.00    -0.259 OA
BRANCH   9  11
HETATM   11  O   UNL     1      64.739   8.334   6.045  1.00  0.00    -0.317 OA
BRANCH  11  12
HETATM   12  C   UNL     1      65.524   7.173   5.734  1.00  0.00     0.174 C 
HETATM   13  C   UNL     1      66.682   7.544   4.828  1.00  0.00     0.034 C 
ENDBRANCH  11  12
ENDBRANCH   9  11
ENDBRANCH   1   9
TORSDOF 3
ENDMDL
MODEL 4
REMARK VINA RESULT:      -4.2      1.265      1.345
REMARK  3 active torsions:
REMARK  status: ('A' for Active; 'I' for Inactive)
REMARK    1  A    between atoms: C_1  and  C_7 
REMARK    2  A    between atoms: C_7  and  O_10 
REMARK    3  A    between atoms: O_10  and  C_12 
ROOT
HETATM    1  C   UNL     1      62.424   8.752   4.514  1.00  0.00     0.105 A 
HETATM    2  N   UNL     1      61.333   9.786   2.712  1.00  0.00    -0.343 N 
ATOM      3  HN  UNL     1      60.960  10.545   2.142  1.00  0.00     0.167 HD
HETATM    4  C   UNL     1      62.010   9.944   3.920  1.00  0.00     0.030 A 
HETATM    5  S   UNL     1      61.937   7.425   3.515  1.00  0.00    -0.052 SA
HETATM    6  C   UNL     1      61.251   8.514   2.422  1.00  0.00     0.146 A 
HETATM    7 CL   UNL     1      60.490   7.944   0.996  1.00  0.00    -0.056 Cl
HETATM    8  C   UNL     1      62.188  11.353   4.370  1.00  0.00     0.070 C 
ENDROOT
BRANCH   1   9
HETATM    9  C   UNL     1      63.144   8.453   5.734  1.00  0.00     0.302 C 
HETATM   10  O   UNL     1      62.728   7.779   6.669  1.00  0.00    -0.259 OA
BRANCH   9  11
HETATM   11  O   UNL     1      64.378   9.028   5.713  1.00  0.00    -0.317 OA
BRANCH  11  12
HETATM   12  C   UNL     1      65.447   8.239   5.168  1.00  0.00     0.174 C 
HETATM   13  C   UNL     1      66.522   8.010   6.213  1.00  0.00     0.034 C 
ENDBRANCH  11  12
ENDBRANCH   9  11
ENDBRANCH   1   9
TORSDOF 3
ENDMDL
MODEL 5
REMARK VINA RESULT:      -3.8      4.468      5.731
REMARK  3 active torsions:
REMARK  status: ('A' for Active; 'I' for Inactive)
REMARK    1  A    between atoms: C_1  and  C_7 
REMARK    2  A    between atoms: C_7  and  O_10 
REMARK    3  A    between atoms: O_10  and  C_12 
ROOT
HETATM    1  C   UNL     1      65.769   6.434   7.021  1.00  0.00     0.105 A 
HETATM    2  N   UNL     1      66.251   4.546   8.329  1.00  0.00    -0.343 N 
ATOM      3  HN  UNL     1      66.568   4.013   9.138  1.00  0.00     0.167 HD
HETATM    4  C   UNL     1      66.251   5.937   8.231  1.00  0.00     0.030 A 
HETATM    5  S   UNL     1      65.320   5.107   6.005  1.00  0.00    -0.052 SA
HETATM    6  C   UNL     1      65.783   4.032   7.222  1.00  0.00     0.146 A 
HETATM    7 CL   UNL     1      65.628   2.341   6.988  1.00  0.00    -0.056 Cl
HETATM    8  C   UNL     1      66.752   6.659   9.435  1.00  0.00     0.070 C 
ENDROOT
BRANCH   1   9
HETATM    9  C   UNL     1      65.587   7.775   6.504  1.00  0.00     0.302 C 
HETATM   10  O   UNL     1      66.444   8.650   6.457  1.00  0.00    -0.259 OA
BRANCH   9  11
HETATM   11  O   UNL     1      64.311   7.947   6.063  1.00  0.00    -0.317 OA
BRANCH  11  12
HETATM   12  C   UNL     1      64.140   8.748   4.884  1.00  0.00     0.174 C 
HETATM   13  C   UNL     1      63.632   7.898   3.735  1.00  0.00     0.034 C 
ENDBRANCH  11  12
ENDBRANCH   9  11
ENDBRANCH   1   9
TORSDOF 3
ENDMDL
MODEL 6
REMARK VINA RESULT:      -3.8      4.232      5.641
REMARK  3 active torsions:
REMARK  status: ('A' for Active; 'I' for Inactive)
REMARK    1  A    between atoms: C_1  and  C_7 
REMARK    2  A    between atoms: C_7  and  O_10 
REMARK    3  A    between atoms: O_10  and  C_12 
ROOT
HETATM    1  C   UNL     1      65.859   7.244   5.905  1.00  0.00     0.105 A 
HETATM    2  N   UNL     1      67.989   6.987   6.857  1.00  0.00    -0.343 N 
ATOM      3  HN  UNL     1      69.005   7.039   6.928  1.00  0.00     0.167 HD
HETATM    4  C   UNL     1      67.235   7.421   5.767  1.00  0.00     0.030 A 
HETATM    5  S   UNL     1      65.536   6.513   7.441  1.00  0.00    -0.052 SA
HETATM    6  C   UNL     1      67.192   6.504   7.772  1.00  0.00     0.146 A 
HETATM    7 CL   UNL     1      67.771   5.886   9.263  1.00  0.00    -0.056 Cl
HETATM    8  C   UNL     1      68.020   8.009   4.645  1.00  0.00     0.070 C 
ENDROOT
BRANCH   1   9
HETATM    9  C   UNL     1      64.732   7.548   5.049  1.00  0.00     0.302 C 
HETATM   10  O   UNL     1      64.571   7.148   3.902  1.00  0.00    -0.259 OA
BRANCH   9  11
HETATM   11  O   UNL     1      63.846   8.356   5.695  1.00  0.00    -0.317 OA
BRANCH  11  12
HETATM   12  C   UNL     1      63.679   9.680   5.167  1.00  0.00     0.174 C 
HETATM   13  C   UNL     1      62.397   9.771   4.361  1.00  0.00     0.034 C 
ENDBRANCH  11  12
ENDBRANCH   9  11
ENDBRANCH   1   9
TORSDOF 3
ENDMDL
MODEL 7
REMARK VINA RESULT:      -3.7      3.639      4.915
REMARK  3 active torsions:
REMARK  status: ('A' for Active; 'I' for Inactive)
REMARK    1  A    between atoms: C_1  and  C_7 
REMARK    2  A    between atoms: C_7  and  O_10 
REMARK    3  A    between atoms: O_10  and  C_12 
ROOT
HETATM    1  C   UNL     1      62.930   7.866   4.417  1.00  0.00     0.105 A 
HETATM    2  N   UNL     1      63.156   6.547   6.344  1.00  0.00    -0.343 N 
ATOM      3  HN  UNL     1      62.885   5.898   7.084  1.00  0.00     0.167 HD
HETATM    4  C   UNL     1      62.330   6.975   5.307  1.00  0.00     0.030 A 
HETATM    5  S   UNL     1      64.561   8.154   4.921  1.00  0.00    -0.052 SA
HETATM    6  C   UNL     1      64.332   7.104   6.224  1.00  0.00     0.146 A 
HETATM    7 CL   UNL     1      65.612   6.797   7.322  1.00  0.00    -0.056 Cl
HETATM    8  C   UNL     1      60.953   6.407   5.313  1.00  0.00     0.070 C 
ENDROOT
BRANCH   1   9
HETATM    9  C   UNL     1      62.460   8.541   3.225  1.00  0.00     0.302 C 
HETATM   10  O   UNL     1      62.828   8.314   2.078  1.00  0.00    -0.259 OA
BRANCH   9  11
HETATM   11  O   UNL     1      61.532   9.484   3.545  1.00  0.00    -0.317 OA
BRANCH  11  12
HETATM   12  C   UNL     1      61.980  10.847   3.565  1.00  0.00     0.174 C 
HETATM   13  C   UNL     1      61.785  11.490   2.205  1.00  0.00     0.034 C 
ENDBRANCH  11  12
ENDBRANCH   9  11
ENDBRANCH   1   9
TORSDOF 3
ENDMDL
MODEL 8
REMARK VINA RESULT:      -3.6      3.192      4.325
REMARK  3 active torsions:
REMARK  status: ('A' for Active; 'I' for Inactive)
REMARK    1  A    between atoms: C_1  and  C_7 
REMARK    2  A    between atoms: C_7  and  O_10 
REMARK    3  A    between atoms: O_10  and  C_12 
ROOT
HETATM    1  C   UNL     1      62.809   8.121   4.694  1.00  0.00     0.105 A 
HETATM    2  N   UNL     1      64.609   9.350   5.563  1.00  0.00    -0.343 N 
ATOM      3  HN  UNL     1      65.131  10.167   5.881  1.00  0.00     0.167 HD
HETATM    4  C   UNL     1      63.308   9.369   5.066  1.00  0.00     0.030 A 
HETATM    5  S   UNL     1      64.022   6.920   4.983  1.00  0.00    -0.052 SA
HETATM    6  C   UNL     1      65.058   8.123   5.559  1.00  0.00     0.146 A 
HETATM    7 CL   UNL     1      66.628   7.716   6.117  1.00  0.00    -0.056 Cl
HETATM    8  C   UNL     1      62.662  10.712   5.023  1.00  0.00     0.070 C 
ENDROOT
BRANCH   1   9
HETATM    9  C   UNL     1      61.540   7.684   4.151  1.00  0.00     0.302 C 
HETATM   10  O   UNL     1      60.798   6.843   4.644  1.00  0.00    -0.259 OA
BRANCH   9  11
HETATM   11  O   UNL     1      61.264   8.344   2.993  1.00  0.00    -0.317 OA
BRANCH  11  12
HETATM   12  C   UNL     1      62.101   8.044   1.866  1.00  0.00     0.174 C 
HETATM   13  C   UNL     1      62.175   9.234   0.929  1.00  0.00     0.034 C 
ENDBRANCH  11  12
ENDBRANCH   9  11
ENDBRANCH   1   9
TORSDOF 3
ENDMDL
MODEL 9
REMARK VINA RESULT:      -3.6      3.358      4.610
REMARK  3 active torsions:
REMARK  status: ('A' for Active; 'I' for Inactive)
REMARK    1  A    between atoms: C_1  and  C_7 
REMARK    2  A    between atoms: C_7  and  O_10 
REMARK    3  A    between atoms: O_10  and  C_12 
ROOT
HETATM    1  C   UNL     1      63.013   8.868   3.925  1.00  0.00     0.105 A 
HETATM    2  N   UNL     1      64.513   9.132   5.711  1.00  0.00    -0.343 N 
ATOM      3  HN  UNL     1      64.950   9.571   6.521  1.00  0.00     0.167 HD
HETATM    4  C   UNL     1      63.436   9.654   4.997  1.00  0.00     0.030 A 
HETATM    5  S   UNL     1      64.009   7.455   3.836  1.00  0.00    -0.052 SA
HETATM    6  C   UNL     1      64.874   7.994   5.182  1.00  0.00     0.146 A 
HETATM    7 CL   UNL     1      66.166   7.057   5.810  1.00  0.00    -0.056 Cl
HETATM    8  C   UNL     1      62.909  10.954   5.500  1.00  0.00     0.070 C 
ENDROOT
BRANCH   1   9
HETATM    9  C   UNL     1      61.957   9.016   2.945  1.00  0.00     0.302 C 
HETATM   10  O   UNL     1      62.100   9.377   1.783  1.00  0.00    -0.259 OA
BRANCH   9  11
HETATM   11  O   UNL     1      60.752   8.694   3.490  1.00  0.00    -0.317 OA
BRANCH  11  12
HETATM   12  C   UNL     1      60.221   7.402   3.160  1.00  0.00     0.174 C 
HETATM   13  C   UNL     1      60.126   6.535   4.401  1.00  0.00     0.034 C 
ENDBRANCH  11  12
ENDBRANCH   9  11
ENDBRANCH   1   9
TORSDOF 3
ENDMDL
