MODEL 1
REMARK VINA RESULT:      -5.2      0.000      0.000
REMARK  2 active torsions:
REMARK  status: ('A' for Active; 'I' for Inactive)
REMARK    1  A    between atoms: C_3  and  C_10 
REMARK    2  A    between atoms: C_10  and  O_11 
ROOT
HETATM    1  S   UNL     1      62.017  10.782   3.645  1.00  0.00    -0.092 SA
HETATM    2  C   UNL     1      63.242   8.512   3.633  1.00  0.00    -0.018 A 
HETATM    3  C   UNL     1      62.974  10.397   5.008  1.00  0.00     0.007 A 
HETATM    4  C   UNL     1      63.580   9.170   4.861  1.00  0.00     0.029 A 
HETATM    5  C   UNL     1      62.387   9.294   2.858  1.00  0.00     0.015 A 
HETATM    6  C   UNL     1      63.634   7.246   3.130  1.00  0.00     0.019 A 
HETATM    7  C   UNL     1      61.922   8.853   1.603  1.00  0.00     0.020 A 
HETATM    8  C   UNL     1      63.175   6.790   1.886  1.00  0.00    -0.061 A 
HETATM    9  C   UNL     1      62.326   7.598   1.134  1.00  0.00     0.008 A 
HETATM   10  C   UNL     1      63.602   5.441   1.386  1.00  0.00     0.048 C 
ENDROOT
BRANCH   3  11
HETATM   11  C   UNL     1      63.065  11.343   6.158  1.00  0.00     0.210 C 
BRANCH  11  12
HETATM   12  O   UNL     1      64.441  11.513   6.476  1.00  0.00    -0.396 OA
HETATM   13  H   UNL     1      64.579  11.333   7.420  1.00  0.00     0.209 HD
ENDBRANCH  11  12
ENDBRANCH   3  11
TORSDOF 2
ENDMDL
MODEL 2
REMARK VINA RESULT:      -5.0      2.440      3.658
REMARK  2 active torsions:
REMARK  status: ('A' for Active; 'I' for Inactive)
REMARK    1  A    between atoms: C_3  and  C_10 
REMARK    2  A    between atoms: C_10  and  O_11 
ROOT
HETATM    1  S   UNL     1      63.292   6.527   3.713  1.00  0.00    -0.092 SA
HETATM    2  C   UNL     1      62.679   9.010   4.048  1.00  0.00    -0.018 A 
HETATM    3  C   UNL     1      63.407   7.159   5.297  1.00  0.00     0.007 A 
HETATM    4  C   UNL     1      63.037   8.484   5.332  1.00  0.00     0.029 A 
HETATM    5  C   UNL     1      62.771   8.033   3.058  1.00  0.00     0.015 A 
HETATM    6  C   UNL     1      62.275  10.314   3.668  1.00  0.00     0.019 A 
HETATM    7  C   UNL     1      62.463   8.318   1.712  1.00  0.00     0.020 A 
HETATM    8  C   UNL     1      61.971  10.616   2.332  1.00  0.00    -0.061 A 
HETATM    9  C   UNL     1      62.066   9.615   1.368  1.00  0.00     0.008 A 
HETATM   10  C   UNL     1      61.553  12.009   1.963  1.00  0.00     0.048 C 
ENDROOT
BRANCH   3  11
HETATM   11  C   UNL     1      63.866   6.295   6.424  1.00  0.00     0.210 C 
BRANCH  11  12
HETATM   12  O   UNL     1      64.577   7.115   7.342  1.00  0.00    -0.396 OA
HETATM   13  H   UNL     1      64.207   7.000   8.232  1.00  0.00     0.209 HD
ENDBRANCH  11  12
ENDBRANCH   3  11
TORSDOF 2
ENDMDL
MODEL 3
REMARK VINA RESULT:      -4.4      2.491      3.371
REMARK  2 active torsions:
REMARK  status: ('A' for Active; 'I' for Inactive)
REMARK    1  A    between atoms: C_3  and  C_10 
REMARK    2  A    between atoms: C_10  and  O_11 
ROOT
HETATM    1  S   UNL     1      65.537   6.201   4.552  1.00  0.00    -0.092 SA
HETATM    2  C   UNL     1      63.908   8.132   4.030  1.00  0.00    -0.018 A 
HETATM    3  C   UNL     1      65.531   7.536   5.620  1.00  0.00     0.007 A 
HETATM    4  C   UNL     1      64.607   8.480   5.232  1.00  0.00     0.029 A 
HETATM    5  C   UNL     1      64.320   6.892   3.546  1.00  0.00     0.015 A 
HETATM    6  C   UNL     1      62.917   8.839   3.305  1.00  0.00     0.019 A 
HETATM    7  C   UNL     1      63.768   6.339   2.373  1.00  0.00     0.020 A 
HETATM    8  C   UNL     1      62.362   8.306   2.132  1.00  0.00    -0.061 A 
HETATM    9  C   UNL     1      62.791   7.061   1.679  1.00  0.00     0.008 A 
HETATM   10  C   UNL     1      61.319   9.085   1.385  1.00  0.00     0.048 C 
ENDROOT
BRANCH   3  11
HETATM   11  C   UNL     1      66.455   7.571   6.791  1.00  0.00     0.210 C 
BRANCH  11  12
HETATM   12  O   UNL     1      66.864   8.919   6.986  1.00  0.00    -0.396 OA
HETATM   13  H   UNL     1      67.832   8.963   7.008  1.00  0.00     0.209 HD
ENDBRANCH  11  12
ENDBRANCH   3  11
TORSDOF 2
ENDMDL
MODEL 4
REMARK VINA RESULT:      -4.3      3.319      4.421
REMARK  2 active torsions:
REMARK  status: ('A' for Active; 'I' for Inactive)
REMARK    1  A    between atoms: C_3  and  C_10 
REMARK    2  A    between atoms: C_10  and  O_11 
ROOT
HETATM    1  S   UNL     1      65.826   5.927   4.597  1.00  0.00    -0.092 SA
HETATM    2  C   UNL     1      64.769   8.223   5.110  1.00  0.00    -0.018 A 
HETATM    3  C   UNL     1      66.502   6.836   5.878  1.00  0.00     0.007 A 
HETATM    4  C   UNL     1      65.833   8.026   6.050  1.00  0.00     0.029 A 
HETATM    5  C   UNL     1      64.649   7.136   4.247  1.00  0.00     0.015 A 
HETATM    6  C   UNL     1      63.878   9.312   4.946  1.00  0.00     0.019 A 
HETATM    7  C   UNL     1      63.666   7.103   3.237  1.00  0.00     0.020 A 
HETATM    8  C   UNL     1      62.898   9.299   3.941  1.00  0.00    -0.061 A 
HETATM    9  C   UNL     1      62.800   8.194   3.099  1.00  0.00     0.008 A 
HETATM   10  C   UNL     1      61.975  10.472   3.789  1.00  0.00     0.048 C 
ENDROOT
BRANCH   3  11
HETATM   11  C   UNL     1      67.671   6.310   6.642  1.00  0.00     0.210 C 
BRANCH  11  12
HETATM   12  O   UNL     1      67.656   6.910   7.931  1.00  0.00    -0.396 OA
HETATM   13  H   UNL     1      68.035   7.802   7.877  1.00  0.00     0.209 HD
ENDBRANCH  11  12
ENDBRANCH   3  11
TORSDOF 2
ENDMDL
MODEL 5
REMARK VINA RESULT:      -4.3      2.658      3.696
REMARK  2 active torsions:
REMARK  status: ('A' for Active; 'I' for Inactive)
REMARK    1  A    between atoms: C_3  and  C_10 
REMARK    2  A    between atoms: C_10  and  O_11 
ROOT
HETATM    1  S   UNL     1      62.927   8.125   3.094  1.00  0.00    -0.092 SA
HETATM    2  C   UNL     1      64.721   8.340   4.934  1.00  0.00    -0.018 A 
HETATM    3  C   UNL     1      62.876   9.518   4.084  1.00  0.00     0.007 A 
HETATM    4  C   UNL     1      63.896   9.510   5.007  1.00  0.00     0.029 A 
HETATM    5  C   UNL     1      64.302   7.488   3.915  1.00  0.00     0.015 A 
HETATM    6  C   UNL     1      65.838   7.953   5.716  1.00  0.00     0.019 A 
HETATM    7  C   UNL     1      64.966   6.273   3.651  1.00  0.00     0.020 A 
HETATM    8  C   UNL     1      66.506   6.744   5.471  1.00  0.00    -0.061 A 
HETATM    9  C   UNL     1      66.066   5.918   4.440  1.00  0.00     0.008 A 
HETATM   10  C   UNL     1      67.681   6.360   6.322  1.00  0.00     0.048 C 
ENDROOT
BRANCH   3  11
HETATM   11  C   UNL     1      61.812  10.546   3.886  1.00  0.00     0.210 C 
BRANCH  11  12
HETATM   12  O   UNL     1      62.267  11.762   4.466  1.00  0.00    -0.396 OA
HETATM   13  H   UNL     1      62.211  12.474   3.810  1.00  0.00     0.209 HD
ENDBRANCH  11  12
ENDBRANCH   3  11
TORSDOF 2
ENDMDL
MODEL 6
REMARK VINA RESULT:      -4.1      2.883      4.662
REMARK  2 active torsions:
REMARK  status: ('A' for Active; 'I' for Inactive)
REMARK    1  A    between atoms: C_3  and  C_10 
REMARK    2  A    between atoms: C_10  and  O_11 
ROOT
HETATM    1  S   UNL     1      63.374   7.228   5.589  1.00  0.00    -0.092 SA
HETATM    2  C   UNL     1      62.667   8.342   3.374  1.00  0.00    -0.018 A 
HETATM    3  C   UNL     1      63.257   6.228   4.208  1.00  0.00     0.007 A 
HETATM    4  C   UNL     1      62.888   6.953   3.098  1.00  0.00     0.029 A 
HETATM    5  C   UNL     1      62.904   8.636   4.715  1.00  0.00     0.015 A 
HETATM    6  C   UNL     1      62.258   9.395   2.518  1.00  0.00     0.019 A 
HETATM    7  C   UNL     1      62.753   9.943   5.220  1.00  0.00     0.020 A 
HETATM    8  C   UNL     1      62.096  10.701   3.005  1.00  0.00    -0.061 A 
HETATM    9  C   UNL     1      62.348  10.962   4.350  1.00  0.00     0.008 A 
HETATM   10  C   UNL     1      61.655  11.792   2.074  1.00  0.00     0.048 C 
ENDROOT
BRANCH   3  11
HETATM   11  C   UNL     1      63.538   4.766   4.308  1.00  0.00     0.210 C 
BRANCH  11  12
HETATM   12  O   UNL     1      64.642   4.473   3.460  1.00  0.00    -0.396 OA
HETATM   13  H   UNL     1      64.426   3.713   2.898  1.00  0.00     0.209 HD
ENDBRANCH  11  12
ENDBRANCH   3  11
TORSDOF 2
ENDMDL
MODEL 7
REMARK VINA RESULT:      -4.0     13.875     14.389
REMARK  2 active torsions:
REMARK  status: ('A' for Active; 'I' for Inactive)
REMARK    1  A    between atoms: C_3  and  C_10 
REMARK    2  A    between atoms: C_10  and  O_11 
ROOT
HETATM    1  S   UNL     1      56.058  -0.243  14.116  1.00  0.00    -0.092 SA
HETATM    2  C   UNL     1      58.275   0.777  13.280  1.00  0.00    -0.018 A 
HETATM    3  C   UNL     1      56.082   1.437  13.801  1.00  0.00     0.007 A 
HETATM    4  C   UNL     1      57.317   1.841  13.348  1.00  0.00     0.029 A 
HETATM    5  C   UNL     1      57.712  -0.436  13.673  1.00  0.00     0.015 A 
HETATM    6  C   UNL     1      59.638   0.791  12.895  1.00  0.00     0.019 A 
HETATM    7  C   UNL     1      58.465  -1.627  13.684  1.00  0.00     0.020 A 
HETATM    8  C   UNL     1      60.404  -0.385  12.907  1.00  0.00    -0.061 A 
HETATM    9  C   UNL     1      59.810  -1.582  13.298  1.00  0.00     0.008 A 
HETATM   10  C   UNL     1      61.848  -0.334  12.500  1.00  0.00     0.048 C 
ENDROOT
BRANCH   3  11
HETATM   11  C   UNL     1      54.861   2.265  14.028  1.00  0.00     0.210 C 
BRANCH  11  12
HETATM   12  O   UNL     1      55.192   3.285  14.962  1.00  0.00    -0.396 OA
HETATM   13  H   UNL     1      54.401   3.810  15.160  1.00  0.00     0.209 HD
ENDBRANCH  11  12
ENDBRANCH   3  11
TORSDOF 2
ENDMDL
MODEL 8
REMARK VINA RESULT:      -3.9      3.424      4.575
REMARK  2 active torsions:
REMARK  status: ('A' for Active; 'I' for Inactive)
REMARK    1  A    between atoms: C_3  and  C_10 
REMARK    2  A    between atoms: C_10  and  O_11 
ROOT
HETATM    1  S   UNL     1      62.134   5.639   2.677  1.00  0.00    -0.092 SA
HETATM    2  C   UNL     1      61.799   8.066   3.482  1.00  0.00    -0.018 A 
HETATM    3  C   UNL     1      61.834   5.881   4.343  1.00  0.00     0.007 A 
HETATM    4  C   UNL     1      61.660   7.216   4.628  1.00  0.00     0.029 A 
HETATM    5  C   UNL     1      62.059   7.325   2.331  1.00  0.00     0.015 A 
HETATM    6  C   UNL     1      61.719   9.476   3.369  1.00  0.00     0.019 A 
HETATM    7  C   UNL     1      62.230   7.948   1.078  1.00  0.00     0.020 A 
HETATM    8  C   UNL     1      61.894  10.112   2.131  1.00  0.00    -0.061 A 
HETATM    9  C   UNL     1      62.145   9.343   0.998  1.00  0.00     0.008 A 
HETATM   10  C   UNL     1      61.810  11.608   2.047  1.00  0.00     0.048 C 
ENDROOT
BRANCH   3  11
HETATM   11  C   UNL     1      61.793   4.720   5.279  1.00  0.00     0.210 C 
BRANCH  11  12
HETATM   12  O   UNL     1      60.627   3.962   4.985  1.00  0.00    -0.396 OA
HETATM   13  H   UNL     1      60.883   3.065   4.717  1.00  0.00     0.209 HD
ENDBRANCH  11  12
ENDBRANCH   3  11
TORSDOF 2
ENDMDL
MODEL 9
REMARK VINA RESULT:      -3.8      2.820      4.276
REMARK  2 active torsions:
REMARK  status: ('A' for Active; 'I' for Inactive)
REMARK    1  A    between atoms: C_3  and  C_10 
REMARK    2  A    between atoms: C_10  and  O_11 
ROOT
HETATM    1  S   UNL     1      62.125   8.958   3.737  1.00  0.00    -0.092 SA
HETATM    2  C   UNL     1      63.970   7.182   3.435  1.00  0.00    -0.018 A 
HETATM    3  C   UNL     1      61.871   7.754   2.550  1.00  0.00     0.007 A 
HETATM    4  C   UNL     1      62.923   6.868   2.509  1.00  0.00     0.029 A 
HETATM    5  C   UNL     1      63.659   8.315   4.185  1.00  0.00     0.015 A 
HETATM    6  C   UNL     1      65.210   6.539   3.674  1.00  0.00     0.019 A 
HETATM    7  C   UNL     1      64.541   8.814   5.165  1.00  0.00     0.020 A 
HETATM    8  C   UNL     1      66.102   7.026   4.641  1.00  0.00    -0.061 A 
HETATM    9  C   UNL     1      65.758   8.157   5.378  1.00  0.00     0.008 A 
HETATM   10  C   UNL     1      67.410   6.325   4.865  1.00  0.00     0.048 C 
ENDROOT
BRANCH   3  11
HETATM   11  C   UNL     1      60.632   7.762   1.719  1.00  0.00     0.210 C 
BRANCH  11  12
HETATM   12  O   UNL     1      60.385   9.102   1.315  1.00  0.00    -0.396 OA
HETATM   13  H   UNL     1      59.777   9.523   1.944  1.00  0.00     0.209 HD
ENDBRANCH  11  12
ENDBRANCH   3  11
TORSDOF 2
ENDMDL
