MODEL 1
REMARK VINA RESULT:      -4.2      0.000      0.000
REMARK  1 active torsions:
REMARK  status: ('A' for Active; 'I' for Inactive)
REMARK    1  A    between atoms: C_2  and  N_10 
ROOT
HETATM    1  C   UNL     1      63.825   9.295   4.988  1.00  0.00     0.093 A 
HETATM    2  C   UNL     1      63.156  10.538   5.235  1.00  0.00     0.062 A 
HETATM    3  C   UNL     1      63.298   8.660   3.865  1.00  0.00     0.103 A 
HETATM    4  S   UNL     1      62.037   9.546   3.143  1.00  0.00    -0.080 SA
HETATM    5  C   UNL     1      62.168  10.796   4.313  1.00  0.00     0.083 A 
HETATM    6  N   UNL     1      64.849   8.741   5.711  1.00  0.00    -0.361 N 
ATOM      7  HN  UNL     1      65.256   9.181   6.536  1.00  0.00     0.165 HD
HETATM    8  N   UNL     1      63.714   7.469   3.369  1.00  0.00    -0.357 N 
ATOM      9  HN  UNL     1      63.313   7.022   2.545  1.00  0.00     0.166 HD
HETATM   10  C   UNL     1      65.266   7.554   5.219  1.00  0.00     0.105 A 
HETATM   11  C   UNL     1      64.723   6.946   4.099  1.00  0.00     0.106 A 
ENDROOT
BRANCH   2  12
HETATM   12  N   UNL     1      63.455  11.368   6.257  1.00  0.00    -0.397 N 
HETATM   13  H   UNL     1      62.733  11.807   6.762  1.00  0.00     0.156 HD
HETATM   14  H   UNL     1      64.395  11.535   6.497  1.00  0.00     0.156 HD
ENDBRANCH   2  12
TORSDOF 1
ENDMDL
MODEL 2
REMARK VINA RESULT:      -4.0      1.408      3.212
REMARK  1 active torsions:
REMARK  status: ('A' for Active; 'I' for Inactive)
REMARK    1  A    between atoms: C_2  and  N_10 
ROOT
HETATM    1  C   UNL     1      64.047   9.078   5.044  1.00  0.00     0.093 A 
HETATM    2  C   UNL     1      65.091   8.165   5.405  1.00  0.00     0.062 A 
HETATM    3  C   UNL     1      63.332   8.610   3.943  1.00  0.00     0.103 A 
HETATM    4  S   UNL     1      63.914   7.115   3.374  1.00  0.00    -0.080 SA
HETATM    5  C   UNL     1      65.131   7.062   4.583  1.00  0.00     0.083 A 
HETATM    6  N   UNL     1      63.733  10.267   5.650  1.00  0.00    -0.361 N 
ATOM      7  HN  UNL     1      64.236  10.636   6.456  1.00  0.00     0.165 HD
HETATM    8  N   UNL     1      62.285   9.242   3.361  1.00  0.00    -0.357 N 
ATOM      9  HN  UNL     1      61.776   8.880   2.555  1.00  0.00     0.166 HD
HETATM   10  C   UNL     1      62.689  10.900   5.072  1.00  0.00     0.105 A 
HETATM   11  C   UNL     1      61.996  10.408   3.976  1.00  0.00     0.106 A 
ENDROOT
BRANCH   2  12
HETATM   12  N   UNL     1      65.945   8.358   6.433  1.00  0.00    -0.397 N 
HETATM   13  H   UNL     1      65.620   8.748   7.276  1.00  0.00     0.156 HD
HETATM   14  H   UNL     1      66.893   8.110   6.338  1.00  0.00     0.156 HD
ENDBRANCH   2  12
TORSDOF 1
ENDMDL
MODEL 3
REMARK VINA RESULT:      -3.8      1.983      3.241
REMARK  1 active torsions:
REMARK  status: ('A' for Active; 'I' for Inactive)
REMARK    1  A    between atoms: C_2  and  N_10 
ROOT
HETATM    1  C   UNL     1      62.537  10.161   3.986  1.00  0.00     0.093 A 
HETATM    2  C   UNL     1      62.985   9.943   5.329  1.00  0.00     0.062 A 
HETATM    3  C   UNL     1      62.660   9.001   3.223  1.00  0.00     0.103 A 
HETATM    4  S   UNL     1      63.297   7.698   4.114  1.00  0.00    -0.080 SA
HETATM    5  C   UNL     1      63.422   8.654   5.535  1.00  0.00     0.083 A 
HETATM    6  N   UNL     1      62.043  11.323   3.450  1.00  0.00    -0.361 N 
ATOM      7  HN  UNL     1      61.941  12.187   3.981  1.00  0.00     0.165 HD
HETATM    8  N   UNL     1      62.322   8.881   1.917  1.00  0.00    -0.357 N 
ATOM      9  HN  UNL     1      62.421   8.021   1.378  1.00  0.00     0.166 HD
HETATM   10  C   UNL     1      61.705  11.206   2.147  1.00  0.00     0.105 A 
HETATM   11  C   UNL     1      61.839  10.037   1.414  1.00  0.00     0.106 A 
ENDROOT
BRANCH   2  12
HETATM   12  N   UNL     1      62.982  10.889   6.292  1.00  0.00    -0.397 N 
HETATM   13  H   UNL     1      62.830  11.832   6.055  1.00  0.00     0.156 HD
HETATM   14  H   UNL     1      63.133  10.635   7.232  1.00  0.00     0.156 HD
ENDBRANCH   2  12
TORSDOF 1
ENDMDL
MODEL 4
REMARK VINA RESULT:      -3.7      1.625      2.538
REMARK  1 active torsions:
REMARK  status: ('A' for Active; 'I' for Inactive)
REMARK    1  A    between atoms: C_2  and  N_10 
ROOT
HETATM    1  C   UNL     1      62.932   9.057   3.628  1.00  0.00     0.093 A 
HETATM    2  C   UNL     1      62.066  10.098   3.159  1.00  0.00     0.062 A 
HETATM    3  C   UNL     1      63.466   9.375   4.875  1.00  0.00     0.103 A 
HETATM    4  S   UNL     1      62.932  10.885   5.450  1.00  0.00    -0.080 SA
HETATM    5  C   UNL     1      61.977  11.146   4.047  1.00  0.00     0.083 A 
HETATM    6  N   UNL     1      63.241   7.880   2.994  1.00  0.00    -0.361 N 
ATOM      7  HN  UNL     1      62.866   7.619   2.083  1.00  0.00     0.165 HD
HETATM    8  N   UNL     1      64.319   8.597   5.585  1.00  0.00    -0.357 N 
ATOM      9  HN  UNL     1      64.698   8.851   6.498  1.00  0.00     0.166 HD
HETATM   10  C   UNL     1      64.090   7.103   3.700  1.00  0.00     0.105 A 
HETATM   11  C   UNL     1      64.606   7.447   4.940  1.00  0.00     0.106 A 
ENDROOT
BRANCH   2  12
HETATM   12  N   UNL     1      61.409  10.064   1.981  1.00  0.00    -0.397 N 
HETATM   13  H   UNL     1      60.518   9.650   1.926  1.00  0.00     0.156 HD
HETATM   14  H   UNL     1      61.822  10.453   1.176  1.00  0.00     0.156 HD
ENDBRANCH   2  12
TORSDOF 1
ENDMDL
MODEL 5
REMARK VINA RESULT:      -3.7      2.386      3.819
REMARK  1 active torsions:
REMARK  status: ('A' for Active; 'I' for Inactive)
REMARK    1  A    between atoms: C_2  and  N_10 
ROOT
HETATM    1  C   UNL     1      65.550   8.046   5.413  1.00  0.00     0.093 A 
HETATM    2  C   UNL     1      66.738   7.902   6.202  1.00  0.00     0.062 A 
HETATM    3  C   UNL     1      65.514   7.101   4.388  1.00  0.00     0.103 A 
HETATM    4  S   UNL     1      66.877   6.082   4.390  1.00  0.00    -0.080 SA
HETATM    5  C   UNL     1      67.543   6.878   5.758  1.00  0.00     0.083 A 
HETATM    6  N   UNL     1      64.543   8.960   5.581  1.00  0.00    -0.361 N 
ATOM      7  HN  UNL     1      64.540   9.663   6.320  1.00  0.00     0.165 HD
HETATM    8  N   UNL     1      64.524   6.975   3.471  1.00  0.00    -0.357 N 
ATOM      9  HN  UNL     1      64.519   6.276   2.729  1.00  0.00     0.166 HD
HETATM   10  C   UNL     1      63.554   8.837   4.668  1.00  0.00     0.105 A 
HETATM   11  C   UNL     1      63.546   7.887   3.659  1.00  0.00     0.106 A 
ENDROOT
BRANCH   2  12
HETATM   12  N   UNL     1      67.041   8.680   7.262  1.00  0.00    -0.397 N 
HETATM   13  H   UNL     1      66.887   9.651   7.220  1.00  0.00     0.156 HD
HETATM   14  H   UNL     1      67.417   8.276   8.078  1.00  0.00     0.156 HD
ENDBRANCH   2  12
TORSDOF 1
ENDMDL
MODEL 6
REMARK VINA RESULT:      -3.7      4.077      5.264
REMARK  1 active torsions:
REMARK  status: ('A' for Active; 'I' for Inactive)
REMARK    1  A    between atoms: C_2  and  N_10 
ROOT
HETATM    1  C   UNL     1      66.295   6.389   7.462  1.00  0.00     0.093 A 
HETATM    2  C   UNL     1      65.422   7.104   6.578  1.00  0.00     0.062 A 
HETATM    3  C   UNL     1      65.911   5.054   7.570  1.00  0.00     0.103 A 
HETATM    4  S   UNL     1      64.540   4.689   6.631  1.00  0.00    -0.080 SA
HETATM    5  C   UNL     1      64.430   6.304   6.059  1.00  0.00     0.083 A 
HETATM    6  N   UNL     1      67.378   6.882   8.143  1.00  0.00    -0.361 N 
ATOM      7  HN  UNL     1      67.684   7.853   8.084  1.00  0.00     0.165 HD
HETATM    8  N   UNL     1      66.533   4.117   8.328  1.00  0.00    -0.357 N 
ATOM      9  HN  UNL     1      66.234   3.145   8.393  1.00  0.00     0.166 HD
HETATM   10  C   UNL     1      68.000   5.951   8.899  1.00  0.00     0.105 A 
HETATM   11  C   UNL     1      67.595   4.628   8.987  1.00  0.00     0.106 A 
ENDROOT
BRANCH   2  12
HETATM   12  N   UNL     1      65.552   8.415   6.282  1.00  0.00    -0.397 N 
HETATM   13  H   UNL     1      65.692   8.697   5.350  1.00  0.00     0.156 HD
HETATM   14  H   UNL     1      65.506   9.088   7.000  1.00  0.00     0.156 HD
ENDBRANCH   2  12
TORSDOF 1
ENDMDL
MODEL 7
REMARK VINA RESULT:      -3.7      2.425      3.996
REMARK  1 active torsions:
REMARK  status: ('A' for Active; 'I' for Inactive)
REMARK    1  A    between atoms: C_2  and  N_10 
ROOT
HETATM    1  C   UNL     1      61.640   9.232   3.587  1.00  0.00     0.093 A 
HETATM    2  C   UNL     1      61.038   8.222   2.768  1.00  0.00     0.062 A 
HETATM    3  C   UNL     1      62.400   8.661   4.606  1.00  0.00     0.103 A 
HETATM    4  S   UNL     1      62.378   6.959   4.564  1.00  0.00    -0.080 SA
HETATM    5  C   UNL     1      61.355   6.950   3.185  1.00  0.00     0.083 A 
HETATM    6  N   UNL     1      61.531  10.592   3.450  1.00  0.00    -0.361 N 
ATOM      7  HN  UNL     1      60.984  11.039   2.715  1.00  0.00     0.165 HD
HETATM    8  N   UNL     1      63.094   9.347   5.547  1.00  0.00    -0.357 N 
ATOM      9  HN  UNL     1      63.644   8.907   6.285  1.00  0.00     0.166 HD
HETATM   10  C   UNL     1      62.222  11.278   4.386  1.00  0.00     0.105 A 
HETATM   11  C   UNL     1      62.970  10.682   5.389  1.00  0.00     0.106 A 
ENDROOT
BRANCH   2  12
HETATM   12  N   UNL     1      60.248   8.481   1.705  1.00  0.00    -0.397 N 
HETATM   13  H   UNL     1      60.042   9.412   1.460  1.00  0.00     0.156 HD
HETATM   14  H   UNL     1      59.877   7.739   1.175  1.00  0.00     0.156 HD
ENDBRANCH   2  12
TORSDOF 1
ENDMDL
MODEL 8
REMARK VINA RESULT:      -3.6      1.724      4.018
REMARK  1 active torsions:
REMARK  status: ('A' for Active; 'I' for Inactive)
REMARK    1  A    between atoms: C_2  and  N_10 
ROOT
HETATM    1  C   UNL     1      63.202   8.734   3.802  1.00  0.00     0.093 A 
HETATM    2  C   UNL     1      63.661   7.482   3.276  1.00  0.00     0.062 A 
HETATM    3  C   UNL     1      63.878   9.061   4.976  1.00  0.00     0.103 A 
HETATM    4  S   UNL     1      65.027   7.885   5.418  1.00  0.00    -0.080 SA
HETATM    5  C   UNL     1      64.646   6.916   4.053  1.00  0.00     0.083 A 
HETATM    6  N   UNL     1      62.236   9.554   3.278  1.00  0.00    -0.361 N 
ATOM      7  HN  UNL     1      61.725   9.343   2.422  1.00  0.00     0.165 HD
HETATM    8  N   UNL     1      63.675  10.179   5.713  1.00  0.00    -0.357 N 
ATOM      9  HN  UNL     1      64.182  10.398   6.571  1.00  0.00     0.166 HD
HETATM   10  C   UNL     1      62.031  10.670   4.012  1.00  0.00     0.105 A 
HETATM   11  C   UNL     1      62.720  10.968   5.177  1.00  0.00     0.106 A 
ENDROOT
BRANCH   2  12
HETATM   12  N   UNL     1      63.186   6.914   2.148  1.00  0.00    -0.397 N 
HETATM   13  H   UNL     1      63.726   6.925   1.326  1.00  0.00     0.156 HD
HETATM   14  H   UNL     1      62.298   6.489   2.148  1.00  0.00     0.156 HD
ENDBRANCH   2  12
TORSDOF 1
ENDMDL
MODEL 9
REMARK VINA RESULT:      -3.6      1.914      3.688
REMARK  1 active torsions:
REMARK  status: ('A' for Active; 'I' for Inactive)
REMARK    1  A    between atoms: C_2  and  N_10 
ROOT
HETATM    1  C   UNL     1      62.858   8.933   3.502  1.00  0.00     0.093 A 
HETATM    2  C   UNL     1      63.157   7.676   2.883  1.00  0.00     0.062 A 
HETATM    3  C   UNL     1      62.095   9.737   2.657  1.00  0.00     0.103 A 
HETATM    4  S   UNL     1      61.759   8.986   1.167  1.00  0.00    -0.080 SA
HETATM    5  C   UNL     1      62.624   7.573   1.618  1.00  0.00     0.083 A 
HETATM    6  N   UNL     1      63.234   9.358   4.750  1.00  0.00    -0.361 N 
ATOM      7  HN  UNL     1      63.791   8.794   5.391  1.00  0.00     0.165 HD
HETATM    8  N   UNL     1      61.650  10.983   2.950  1.00  0.00    -0.357 N 
ATOM      9  HN  UNL     1      61.093  11.554   2.315  1.00  0.00     0.166 HD
HETATM   10  C   UNL     1      62.792  10.600   5.045  1.00  0.00     0.105 A 
HETATM   11  C   UNL     1      62.034  11.377   4.183  1.00  0.00     0.106 A 
ENDROOT
BRANCH   2  12
HETATM   12  N   UNL     1      63.881   6.697   3.466  1.00  0.00    -0.397 N 
HETATM   13  H   UNL     1      64.566   6.216   2.948  1.00  0.00     0.156 HD
HETATM   14  H   UNL     1      63.723   6.464   4.410  1.00  0.00     0.156 HD
ENDBRANCH   2  12
TORSDOF 1
ENDMDL
