MODEL 1
REMARK VINA RESULT:      -5.2      0.000      0.000
REMARK  2 active torsions:
REMARK  status: ('A' for Active; 'I' for Inactive)
REMARK    1  A    between atoms: C_3  and  C_8 
REMARK    2  A    between atoms: C_4  and  N_9 
ROOT
HETATM    1  N   UNL     1      63.932   8.291   5.689  1.00  0.00    -0.183 N 
ATOM      2  HN  UNL     1      64.597   9.058   5.790  1.00  0.00     0.185 HD
HETATM    3  C   UNL     1      62.904   8.267   4.861  1.00  0.00     0.117 A 
HETATM    4  C   UNL     1      63.958   7.108   6.396  1.00  0.00     0.683 A 
HETATM    5  N   UNL     1      63.025   6.186   6.187  1.00  0.00    -0.159 N 
ATOM      6  HN  UNL     1      62.934   5.289   6.664  1.00  0.00     0.193 HD
HETATM    7  S   UNL     1      62.034   6.782   4.992  1.00  0.00     0.021 SA
ENDROOT
BRANCH   3   8
HETATM    8  C   UNL     1      62.544   9.296   3.876  1.00  0.00    -0.000 A 
HETATM    9  C   UNL     1      62.421   8.947   2.522  1.00  0.00     0.014 A 
HETATM   10  C   UNL     1      62.008   9.887   1.573  1.00  0.00     0.001 A 
HETATM   11  C   UNL     1      61.729  11.195   1.960  1.00  0.00     0.000 A 
HETATM   12  C   UNL     1      61.883  11.571   3.291  1.00  0.00     0.001 A 
HETATM   13  C   UNL     1      62.294  10.630   4.241  1.00  0.00     0.014 A 
ENDBRANCH   3   8
BRANCH   4  14
HETATM   14  N   UNL     1      64.938   6.977   7.297  1.00  0.00    -0.234 N 
HETATM   15  H   UNL     1      65.440   6.132   7.358  1.00  0.00     0.174 HD
HETATM   16  H   UNL     1      65.156   7.724   7.898  1.00  0.00     0.174 HD
ENDBRANCH   4  14
TORSDOF 2
ENDMDL
MODEL 2
REMARK VINA RESULT:      -5.1      1.338      2.039
REMARK  2 active torsions:
REMARK  status: ('A' for Active; 'I' for Inactive)
REMARK    1  A    between atoms: C_3  and  C_8 
REMARK    2  A    between atoms: C_4  and  N_9 
ROOT
HETATM    1  N   UNL     1      65.367   8.645   5.792  1.00  0.00    -0.183 N 
ATOM      2  HN  UNL     1      65.892   9.481   5.534  1.00  0.00     0.185 HD
HETATM    3  C   UNL     1      64.125   8.374   5.434  1.00  0.00     0.117 A 
HETATM    4  C   UNL     1      65.836   7.611   6.575  1.00  0.00     0.683 A 
HETATM    5  N   UNL     1      65.050   6.578   6.856  1.00  0.00    -0.159 N 
ATOM      6  HN  UNL     1      65.283   5.773   7.438  1.00  0.00     0.193 HD
HETATM    7  S   UNL     1      63.610   6.856   6.071  1.00  0.00     0.021 SA
ENDROOT
BRANCH   3   8
HETATM    8  C   UNL     1      63.272   9.175   4.545  1.00  0.00    -0.000 A 
HETATM    9  C   UNL     1      62.821  10.435   4.968  1.00  0.00     0.014 A 
HETATM   10  C   UNL     1      62.070  11.252   4.116  1.00  0.00     0.001 A 
HETATM   11  C   UNL     1      61.744  10.813   2.835  1.00  0.00     0.000 A 
HETATM   12  C   UNL     1      62.149   9.550   2.412  1.00  0.00     0.001 A 
HETATM   13  C   UNL     1      62.901   8.735   3.263  1.00  0.00     0.014 A 
ENDBRANCH   3   8
BRANCH   4  14
HETATM   14  N   UNL     1      67.085   7.738   7.037  1.00  0.00    -0.234 N 
HETATM   15  H   UNL     1      67.844   7.727   6.411  1.00  0.00     0.174 HD
HETATM   16  H   UNL     1      67.244   7.842   8.002  1.00  0.00     0.174 HD
ENDBRANCH   4  14
TORSDOF 2
ENDMDL
MODEL 3
REMARK VINA RESULT:      -4.8      2.381      3.387
REMARK  2 active torsions:
REMARK  status: ('A' for Active; 'I' for Inactive)
REMARK    1  A    between atoms: C_3  and  C_8 
REMARK    2  A    between atoms: C_4  and  N_9 
ROOT
HETATM    1  N   UNL     1      65.641   7.622   6.812  1.00  0.00    -0.183 N 
ATOM      2  HN  UNL     1      64.843   7.697   7.443  1.00  0.00     0.185 HD
HETATM    3  C   UNL     1      65.603   7.769   5.500  1.00  0.00     0.117 A 
HETATM    4  C   UNL     1      66.939   7.349   7.188  1.00  0.00     0.683 A 
HETATM    5  N   UNL     1      67.895   7.262   6.269  1.00  0.00    -0.159 N 
ATOM      6  HN  UNL     1      68.879   7.046   6.430  1.00  0.00     0.193 HD
HETATM    7  S   UNL     1      67.171   7.575   4.806  1.00  0.00     0.021 SA
ENDROOT
BRANCH   3   8
HETATM    8  C   UNL     1      64.432   8.132   4.690  1.00  0.00    -0.000 A 
HETATM    9  C   UNL     1      63.684   9.272   5.026  1.00  0.00     0.014 A 
HETATM   10  C   UNL     1      62.610   9.684   4.231  1.00  0.00     0.001 A 
HETATM   11  C   UNL     1      62.256   8.955   3.099  1.00  0.00     0.000 A 
HETATM   12  C   UNL     1      62.961   7.800   2.772  1.00  0.00     0.001 A 
HETATM   13  C   UNL     1      64.037   7.388   3.565  1.00  0.00     0.014 A 
ENDBRANCH   3   8
BRANCH   4  14
HETATM   14  N   UNL     1      67.149   7.156   8.494  1.00  0.00    -0.234 N 
HETATM   15  H   UNL     1      67.731   7.773   8.995  1.00  0.00     0.174 HD
HETATM   16  H   UNL     1      66.723   6.398   8.955  1.00  0.00     0.174 HD
ENDBRANCH   4  14
TORSDOF 2
ENDMDL
MODEL 4
REMARK VINA RESULT:      -4.5      2.633      5.351
REMARK  2 active torsions:
REMARK  status: ('A' for Active; 'I' for Inactive)
REMARK    1  A    between atoms: C_3  and  C_8 
REMARK    2  A    between atoms: C_4  and  N_9 
ROOT
HETATM    1  N   UNL     1      64.133   9.822   5.631  1.00  0.00    -0.183 N 
ATOM      2  HN  UNL     1      64.627  10.297   6.387  1.00  0.00     0.185 HD
HETATM    3  C   UNL     1      64.438   8.635   5.137  1.00  0.00     0.117 A 
HETATM    4  C   UNL     1      63.036  10.312   4.955  1.00  0.00     0.683 A 
HETATM    5  N   UNL     1      62.485   9.605   3.976  1.00  0.00    -0.159 N 
ATOM      6  HN  UNL     1      61.689   9.877   3.398  1.00  0.00     0.193 HD
HETATM    7  S   UNL     1      63.348   8.187   3.877  1.00  0.00     0.021 SA
ENDROOT
BRANCH   3   8
HETATM    8  C   UNL     1      65.497   7.733   5.610  1.00  0.00    -0.000 A 
HETATM    9  C   UNL     1      66.749   7.741   4.975  1.00  0.00     0.014 A 
HETATM   10  C   UNL     1      67.799   6.948   5.449  1.00  0.00     0.001 A 
HETATM   11  C   UNL     1      67.607   6.121   6.553  1.00  0.00     0.000 A 
HETATM   12  C   UNL     1      66.361   6.069   7.171  1.00  0.00     0.001 A 
HETATM   13  C   UNL     1      65.312   6.864   6.699  1.00  0.00     0.014 A 
ENDBRANCH   3   8
BRANCH   4  14
HETATM   14  N   UNL     1      62.604  11.523   5.327  1.00  0.00    -0.234 N 
HETATM   15  H   UNL     1      62.160  12.109   4.671  1.00  0.00     0.174 HD
HETATM   16  H   UNL     1      62.732  11.828   6.253  1.00  0.00     0.174 HD
ENDBRANCH   4  14
TORSDOF 2
ENDMDL
MODEL 5
REMARK VINA RESULT:      -4.4      1.753      2.523
REMARK  2 active torsions:
REMARK  status: ('A' for Active; 'I' for Inactive)
REMARK    1  A    between atoms: C_3  and  C_8 
REMARK    2  A    between atoms: C_4  and  N_9 
ROOT
HETATM    1  N   UNL     1      64.084   6.748   6.011  1.00  0.00    -0.183 N 
ATOM      2  HN  UNL     1      63.133   6.394   6.117  1.00  0.00     0.185 HD
HETATM    3  C   UNL     1      64.435   7.824   5.330  1.00  0.00     0.117 A 
HETATM    4  C   UNL     1      65.218   6.180   6.554  1.00  0.00     0.683 A 
HETATM    5  N   UNL     1      66.408   6.726   6.333  1.00  0.00    -0.159 N 
ATOM      6  HN  UNL     1      67.310   6.382   6.665  1.00  0.00     0.193 HD
HETATM    7  S   UNL     1      66.140   8.082   5.409  1.00  0.00     0.021 SA
ENDROOT
BRANCH   3   8
HETATM    8  C   UNL     1      63.536   8.764   4.648  1.00  0.00    -0.000 A 
HETATM    9  C   UNL     1      63.200   9.977   5.269  1.00  0.00     0.014 A 
HETATM   10  C   UNL     1      62.406  10.924   4.614  1.00  0.00     0.001 A 
HETATM   11  C   UNL     1      61.922  10.664   3.334  1.00  0.00     0.000 A 
HETATM   12  C   UNL     1      62.212   9.451   2.717  1.00  0.00     0.001 A 
HETATM   13  C   UNL     1      63.007   8.505   3.372  1.00  0.00     0.014 A 
ENDBRANCH   3   8
BRANCH   4  14
HETATM   14  N   UNL     1      65.037   5.063   7.267  1.00  0.00    -0.234 N 
HETATM   15  H   UNL     1      64.755   5.121   8.209  1.00  0.00     0.174 HD
HETATM   16  H   UNL     1      65.186   4.184   6.851  1.00  0.00     0.174 HD
ENDBRANCH   4  14
TORSDOF 2
ENDMDL
MODEL 6
REMARK VINA RESULT:      -4.4      2.684      5.154
REMARK  2 active torsions:
REMARK  status: ('A' for Active; 'I' for Inactive)
REMARK    1  A    between atoms: C_3  and  C_8 
REMARK    2  A    between atoms: C_4  and  N_9 
ROOT
HETATM    1  N   UNL     1      62.590   9.505   3.476  1.00  0.00    -0.183 N 
ATOM      2  HN  UNL     1      62.586   8.758   2.781  1.00  0.00     0.185 HD
HETATM    3  C   UNL     1      63.147   9.441   4.672  1.00  0.00     0.117 A 
HETATM    4  C   UNL     1      62.014  10.748   3.324  1.00  0.00     0.683 A 
HETATM    5  N   UNL     1      62.072  11.636   4.310  1.00  0.00    -0.159 N 
ATOM      6  HN  UNL     1      61.665  12.572   4.315  1.00  0.00     0.193 HD
HETATM    7  S   UNL     1      62.939  10.921   5.535  1.00  0.00     0.021 SA
ENDROOT
BRANCH   3   8
HETATM    8  C   UNL     1      63.925   8.322   5.220  1.00  0.00    -0.000 A 
HETATM    9  C   UNL     1      63.273   7.318   5.953  1.00  0.00     0.014 A 
HETATM   10  C   UNL     1      63.975   6.203   6.423  1.00  0.00     0.001 A 
HETATM   11  C   UNL     1      65.341   6.084   6.184  1.00  0.00     0.000 A 
HETATM   12  C   UNL     1      66.013   7.089   5.493  1.00  0.00     0.001 A 
HETATM   13  C   UNL     1      65.311   8.203   5.021  1.00  0.00     0.014 A 
ENDBRANCH   3   8
BRANCH   4  14
HETATM   14  N   UNL     1      61.388  10.973   2.163  1.00  0.00    -0.234 N 
HETATM   15  H   UNL     1      61.463  10.319   1.430  1.00  0.00     0.174 HD
HETATM   16  H   UNL     1      60.854  11.790   2.041  1.00  0.00     0.174 HD
ENDBRANCH   4  14
TORSDOF 2
ENDMDL
MODEL 7
REMARK VINA RESULT:      -4.2      1.786      2.349
REMARK  2 active torsions:
REMARK  status: ('A' for Active; 'I' for Inactive)
REMARK    1  A    between atoms: C_3  and  C_8 
REMARK    2  A    between atoms: C_4  and  N_9 
ROOT
HETATM    1  N   UNL     1      60.634   6.811   4.461  1.00  0.00    -0.183 N 
ATOM      2  HN  UNL     1      59.868   6.784   3.787  1.00  0.00     0.185 HD
HETATM    3  C   UNL     1      61.628   7.681   4.463  1.00  0.00     0.117 A 
HETATM    4  C   UNL     1      60.804   5.944   5.519  1.00  0.00     0.683 A 
HETATM    5  N   UNL     1      61.854   6.071   6.323  1.00  0.00    -0.159 N 
ATOM      6  HN  UNL     1      62.090   5.477   7.119  1.00  0.00     0.193 HD
HETATM    7  S   UNL     1      62.708   7.388   5.776  1.00  0.00     0.021 SA
ENDROOT
BRANCH   3   8
HETATM    8  C   UNL     1      61.802   8.818   3.550  1.00  0.00    -0.000 A 
HETATM    9  C   UNL     1      61.907   8.589   2.168  1.00  0.00     0.014 A 
HETATM   10  C   UNL     1      61.998   9.655   1.269  1.00  0.00     0.001 A 
HETATM   11  C   UNL     1      62.004  10.967   1.737  1.00  0.00     0.000 A 
HETATM   12  C   UNL     1      61.941  11.213   3.105  1.00  0.00     0.001 A 
HETATM   13  C   UNL     1      61.847  10.147   4.005  1.00  0.00     0.014 A 
ENDBRANCH   3   8
BRANCH   4  14
HETATM   14  N   UNL     1      59.883   4.983   5.652  1.00  0.00    -0.234 N 
HETATM   15  H   UNL     1      59.306   4.747   4.889  1.00  0.00     0.174 HD
HETATM   16  H   UNL     1      59.781   4.514   6.510  1.00  0.00     0.174 HD
ENDBRANCH   4  14
TORSDOF 2
ENDMDL
MODEL 8
REMARK VINA RESULT:      -4.2      2.714      5.057
REMARK  2 active torsions:
REMARK  status: ('A' for Active; 'I' for Inactive)
REMARK    1  A    between atoms: C_3  and  C_8 
REMARK    2  A    between atoms: C_4  and  N_9 
ROOT
HETATM    1  N   UNL     1      62.481  10.093   3.451  1.00  0.00    -0.183 N 
ATOM      2  HN  UNL     1      62.611  10.730   4.238  1.00  0.00     0.185 HD
HETATM    3  C   UNL     1      62.852   8.826   3.417  1.00  0.00     0.117 A 
HETATM    4  C   UNL     1      61.890  10.412   2.247  1.00  0.00     0.683 A 
HETATM    5  N   UNL     1      61.790   9.497   1.290  1.00  0.00    -0.159 N 
ATOM      6  HN  UNL     1      61.394   9.627   0.359  1.00  0.00     0.193 HD
HETATM    7  S   UNL     1      62.440   8.097   1.909  1.00  0.00     0.021 SA
ENDROOT
BRANCH   3   8
HETATM    8  C   UNL     1      63.460   8.058   4.513  1.00  0.00    -0.000 A 
HETATM    9  C   UNL     1      64.779   8.336   4.905  1.00  0.00     0.014 A 
HETATM   10  C   UNL     1      65.359   7.674   5.991  1.00  0.00     0.001 A 
HETATM   11  C   UNL     1      64.635   6.712   6.692  1.00  0.00     0.000 A 
HETATM   12  C   UNL     1      63.340   6.395   6.294  1.00  0.00     0.001 A 
HETATM   13  C   UNL     1      62.759   7.058   5.208  1.00  0.00     0.014 A 
ENDBRANCH   3   8
BRANCH   4  14
HETATM   14  N   UNL     1      61.469  11.674   2.111  1.00  0.00    -0.234 N 
HETATM   15  H   UNL     1      61.964  12.298   1.532  1.00  0.00     0.174 HD
HETATM   16  H   UNL     1      60.666  11.980   2.590  1.00  0.00     0.174 HD
ENDBRANCH   4  14
TORSDOF 2
ENDMDL
MODEL 9
REMARK VINA RESULT:      -4.0      3.741      4.847
REMARK  2 active torsions:
REMARK  status: ('A' for Active; 'I' for Inactive)
REMARK    1  A    between atoms: C_3  and  C_8 
REMARK    2  A    between atoms: C_4  and  N_9 
ROOT
HETATM    1  N   UNL     1      59.740   8.073   2.519  1.00  0.00    -0.183 N 
ATOM      2  HN  UNL     1      59.243   8.032   3.409  1.00  0.00     0.185 HD
HETATM    3  C   UNL     1      60.978   8.500   2.348  1.00  0.00     0.117 A 
HETATM    4  C   UNL     1      59.232   7.692   1.296  1.00  0.00     0.683 A 
HETATM    5  N   UNL     1      59.974   7.805   0.200  1.00  0.00    -0.159 N 
ATOM      6  HN  UNL     1      59.695   7.576  -0.754  1.00  0.00     0.193 HD
HETATM    7  S   UNL     1      61.449   8.397   0.691  1.00  0.00     0.021 SA
ENDROOT
BRANCH   3   8
HETATM    8  C   UNL     1      61.910   8.938   3.396  1.00  0.00    -0.000 A 
HETATM    9  C   UNL     1      62.921   8.067   3.832  1.00  0.00     0.014 A 
HETATM   10  C   UNL     1      63.868   8.481   4.775  1.00  0.00     0.001 A 
HETATM   11  C   UNL     1      63.807   9.766   5.308  1.00  0.00     0.000 A 
HETATM   12  C   UNL     1      62.789  10.630   4.918  1.00  0.00     0.001 A 
HETATM   13  C   UNL     1      61.843  10.217   3.974  1.00  0.00     0.014 A 
ENDBRANCH   3   8
BRANCH   4  14
HETATM   14  N   UNL     1      57.971   7.245   1.292  1.00  0.00    -0.234 N 
HETATM   15  H   UNL     1      57.372   7.471   0.543  1.00  0.00     0.174 HD
HETATM   16  H   UNL     1      57.642   6.693   2.036  1.00  0.00     0.174 HD
ENDBRANCH   4  14
TORSDOF 2
ENDMDL
