MODEL 1
REMARK VINA RESULT:      -4.6      0.000      0.000
REMARK  1 active torsions:
REMARK  status: ('A' for Active; 'I' for Inactive)
REMARK    1  A    between atoms: C_9  and  N_10 
ROOT
HETATM    1  N   UNL     1      61.708  10.600   1.732  1.00  0.00    -0.345 N 
ATOM      2  HN  UNL     1      61.494  10.349   0.766  1.00  0.00     0.167 HD
HETATM    3  C   UNL     1      62.297  10.526   3.910  1.00  0.00     0.105 A 
HETATM    4  C   UNL     1      61.646  11.784   2.302  1.00  0.00     0.234 A 
HETATM    5  C   UNL     1      62.130   9.784   2.752  1.00  0.00     0.067 A 
HETATM    6  O   UNL     1      61.984  11.824   3.621  1.00  0.00    -0.304 OA
HETATM    7  C   UNL     1      62.725  10.011   5.128  1.00  0.00     0.068 A 
HETATM    8  C   UNL     1      62.415   8.416   2.783  1.00  0.00     0.035 A 
HETATM    9  C   UNL     1      62.965   8.630   5.169  1.00  0.00     0.028 A 
HETATM   10  C   UNL     1      62.854   7.862   3.998  1.00  0.00     0.031 A 
ENDROOT
BRANCH   9  11
HETATM   11  N   UNL     1      63.540   8.061   6.316  1.00  0.00    -0.399 N 
HETATM   12  H   UNL     1      62.974   7.836   7.089  1.00  0.00     0.156 HD
HETATM   13  H   UNL     1      64.508   7.887   6.346  1.00  0.00     0.156 HD
ENDBRANCH   9  11
TORSDOF 1
ENDMDL
MODEL 2
REMARK VINA RESULT:      -4.5      1.271      3.114
REMARK  1 active torsions:
REMARK  status: ('A' for Active; 'I' for Inactive)
REMARK    1  A    between atoms: C_9  and  N_10 
ROOT
HETATM    1  N   UNL     1      63.299  10.062   5.674  1.00  0.00    -0.345 N 
ATOM      2  HN  UNL     1      63.825   9.633   6.435  1.00  0.00     0.167 HD
HETATM    3  C   UNL     1      62.276  10.457   3.700  1.00  0.00     0.105 A 
HETATM    4  C   UNL     1      62.737  11.251   5.636  1.00  0.00     0.234 A 
HETATM    5  C   UNL     1      63.005   9.539   4.438  1.00  0.00     0.067 A 
HETATM    6  O   UNL     1      62.099  11.568   4.475  1.00  0.00    -0.304 OA
HETATM    7  C   UNL     1      61.807  10.243   2.408  1.00  0.00     0.068 A 
HETATM    8  C   UNL     1      63.299   8.297   3.868  1.00  0.00     0.035 A 
HETATM    9  C   UNL     1      62.143   9.015   1.821  1.00  0.00     0.028 A 
HETATM   10  C   UNL     1      62.837   8.046   2.564  1.00  0.00     0.031 A 
ENDROOT
BRANCH   9  11
HETATM   11  N   UNL     1      61.584   8.666   0.582  1.00  0.00    -0.399 N 
HETATM   12  H   UNL     1      60.999   9.301   0.110  1.00  0.00     0.156 HD
HETATM   13  H   UNL     1      61.779   7.787   0.184  1.00  0.00     0.156 HD
ENDBRANCH   9  11
TORSDOF 1
ENDMDL
MODEL 3
REMARK VINA RESULT:      -4.5      1.737      2.193
REMARK  1 active torsions:
REMARK  status: ('A' for Active; 'I' for Inactive)
REMARK    1  A    between atoms: C_9  and  N_10 
ROOT
HETATM    1  N   UNL     1      62.470   8.102   1.708  1.00  0.00    -0.345 N 
ATOM      2  HN  UNL     1      62.766   7.180   1.390  1.00  0.00     0.167 HD
HETATM    3  C   UNL     1      62.139   9.969   2.935  1.00  0.00     0.105 A 
HETATM    4  C   UNL     1      61.733   8.989   1.074  1.00  0.00     0.234 A 
HETATM    5  C   UNL     1      62.742   8.722   2.903  1.00  0.00     0.067 A 
HETATM    6  O   UNL     1      61.484  10.145   1.750  1.00  0.00    -0.304 OA
HETATM    7  C   UNL     1      62.222  10.863   3.997  1.00  0.00     0.068 A 
HETATM    8  C   UNL     1      63.502   8.313   4.003  1.00  0.00     0.035 A 
HETATM    9  C   UNL     1      62.946  10.432   5.118  1.00  0.00     0.028 A 
HETATM   10  C   UNL     1      63.610   9.194   5.093  1.00  0.00     0.031 A 
ENDROOT
BRANCH   9  11
HETATM   11  N   UNL     1      63.199  11.331   6.165  1.00  0.00    -0.399 N 
HETATM   12  H   UNL     1      62.450  11.754   6.641  1.00  0.00     0.156 HD
HETATM   13  H   UNL     1      64.127  11.537   6.423  1.00  0.00     0.156 HD
ENDBRANCH   9  11
TORSDOF 1
ENDMDL
MODEL 4
REMARK VINA RESULT:      -4.4      2.068      3.125
REMARK  1 active torsions:
REMARK  status: ('A' for Active; 'I' for Inactive)
REMARK    1  A    between atoms: C_9  and  N_10 
ROOT
HETATM    1  N   UNL     1      62.333  11.782   4.870  1.00  0.00    -0.345 N 
ATOM      2  HN  UNL     1      62.014  12.751   4.881  1.00  0.00     0.167 HD
HETATM    3  C   UNL     1      62.801   9.662   4.251  1.00  0.00     0.105 A 
HETATM    4  C   UNL     1      62.915  11.102   5.833  1.00  0.00     0.234 A 
HETATM    5  C   UNL     1      62.259  10.871   3.845  1.00  0.00     0.067 A 
HETATM    6  O   UNL     1      63.228   9.809   5.540  1.00  0.00    -0.304 OA
HETATM    7  C   UNL     1      62.893   8.526   3.453  1.00  0.00     0.068 A 
HETATM    8  C   UNL     1      61.768  10.985   2.542  1.00  0.00     0.035 A 
HETATM    9  C   UNL     1      62.358   8.629   2.161  1.00  0.00     0.028 A 
HETATM   10  C   UNL     1      61.848   9.857   1.706  1.00  0.00     0.031 A 
ENDROOT
BRANCH   9  11
HETATM   11  N   UNL     1      62.545   7.579   1.250  1.00  0.00    -0.399 N 
HETATM   12  H   UNL     1      63.403   7.486   0.777  1.00  0.00     0.156 HD
HETATM   13  H   UNL     1      61.819   6.935   1.085  1.00  0.00     0.156 HD
ENDBRANCH   9  11
TORSDOF 1
ENDMDL
MODEL 5
REMARK VINA RESULT:      -4.4      1.735      4.085
REMARK  1 active torsions:
REMARK  status: ('A' for Active; 'I' for Inactive)
REMARK    1  A    between atoms: C_9  and  N_10 
ROOT
HETATM    1  N   UNL     1      64.091   8.363   5.835  1.00  0.00    -0.345 N 
ATOM      2  HN  UNL     1      64.425   8.454   6.795  1.00  0.00     0.167 HD
HETATM    3  C   UNL     1      63.123   8.748   3.832  1.00  0.00     0.105 A 
HETATM    4  C   UNL     1      64.231   7.345   5.014  1.00  0.00     0.234 A 
HETATM    5  C   UNL     1      63.387   9.274   5.086  1.00  0.00     0.067 A 
HETATM    6  O   UNL     1      63.670   7.497   3.781  1.00  0.00    -0.304 OA
HETATM    7  C   UNL     1      62.436   9.412   2.822  1.00  0.00     0.068 A 
HETATM    8  C   UNL     1      62.947  10.567   5.381  1.00  0.00     0.035 A 
HETATM    9  C   UNL     1      61.956  10.692   3.135  1.00  0.00     0.028 A 
HETATM   10  C   UNL     1      62.252  11.270   4.381  1.00  0.00     0.031 A 
ENDROOT
BRANCH   9  11
HETATM   11  N   UNL     1      61.385  11.482   2.125  1.00  0.00    -0.399 N 
HETATM   12  H   UNL     1      60.420  11.673   2.138  1.00  0.00     0.156 HD
HETATM   13  H   UNL     1      61.950  11.846   1.406  1.00  0.00     0.156 HD
ENDBRANCH   9  11
TORSDOF 1
ENDMDL
MODEL 6
REMARK VINA RESULT:      -4.4      2.063      2.891
REMARK  1 active torsions:
REMARK  status: ('A' for Active; 'I' for Inactive)
REMARK    1  A    between atoms: C_9  and  N_10 
ROOT
HETATM    1  N   UNL     1      62.196   8.539   1.859  1.00  0.00    -0.345 N 
ATOM      2  HN  UNL     1      61.677   8.674   0.991  1.00  0.00     0.167 HD
HETATM    3  C   UNL     1      63.141   8.837   3.888  1.00  0.00     0.105 A 
HETATM    4  C   UNL     1      62.878   7.483   2.248  1.00  0.00     0.234 A 
HETATM    5  C   UNL     1      62.352   9.414   2.906  1.00  0.00     0.067 A 
HETATM    6  O   UNL     1      63.483   7.584   3.465  1.00  0.00    -0.304 OA
HETATM    7  C   UNL     1      63.488   9.449   5.088  1.00  0.00     0.068 A 
HETATM    8  C   UNL     1      61.849  10.701   3.115  1.00  0.00     0.035 A 
HETATM    9  C   UNL     1      63.021  10.757   5.276  1.00  0.00     0.028 A 
HETATM   10  C   UNL     1      62.177  11.348   4.320  1.00  0.00     0.031 A 
ENDROOT
BRANCH   9  11
HETATM   11  N   UNL     1      63.203  11.384   6.518  1.00  0.00    -0.399 N 
HETATM   12  H   UNL     1      63.929  11.092   7.114  1.00  0.00     0.156 HD
HETATM   13  H   UNL     1      62.605  12.116   6.792  1.00  0.00     0.156 HD
ENDBRANCH   9  11
TORSDOF 1
ENDMDL
MODEL 7
REMARK VINA RESULT:      -4.3      1.547      2.245
REMARK  1 active torsions:
REMARK  status: ('A' for Active; 'I' for Inactive)
REMARK    1  A    between atoms: C_9  and  N_10 
ROOT
HETATM    1  N   UNL     1      61.292  10.295   2.022  1.00  0.00    -0.345 N 
ATOM      2  HN  UNL     1      60.704  11.111   1.852  1.00  0.00     0.167 HD
HETATM    3  C   UNL     1      62.717   8.805   2.943  1.00  0.00     0.105 A 
HETATM    4  C   UNL     1      61.492   9.254   1.243  1.00  0.00     0.234 A 
HETATM    5  C   UNL     1      62.069  10.017   3.120  1.00  0.00     0.067 A 
HETATM    6  O   UNL     1      62.344   8.307   1.727  1.00  0.00    -0.304 OA
HETATM    7  C   UNL     1      63.575   8.222   3.869  1.00  0.00     0.068 A 
HETATM    8  C   UNL     1      62.269  10.720   4.311  1.00  0.00     0.035 A 
HETATM    9  C   UNL     1      63.811   8.951   5.043  1.00  0.00     0.028 A 
HETATM   10  C   UNL     1      63.128  10.158   5.271  1.00  0.00     0.031 A 
ENDROOT
BRANCH   9  11
HETATM   11  N   UNL     1      64.544   8.364   6.086  1.00  0.00    -0.399 N 
HETATM   12  H   UNL     1      64.116   8.205   6.958  1.00  0.00     0.156 HD
HETATM   13  H   UNL     1      65.484   8.110   5.945  1.00  0.00     0.156 HD
ENDBRANCH   9  11
TORSDOF 1
ENDMDL
MODEL 8
REMARK VINA RESULT:      -4.1      1.578      3.626
REMARK  1 active torsions:
REMARK  status: ('A' for Active; 'I' for Inactive)
REMARK    1  A    between atoms: C_9  and  N_10 
ROOT
HETATM    1  N   UNL     1      62.815   6.985   4.700  1.00  0.00    -0.345 N 
ATOM      2  HN  UNL     1      62.872   5.994   4.463  1.00  0.00     0.167 HD
HETATM    3  C   UNL     1      62.537   9.223   4.603  1.00  0.00     0.105 A 
HETATM    4  C   UNL     1      63.040   7.563   5.860  1.00  0.00     0.234 A 
HETATM    5  C   UNL     1      62.485   8.040   3.885  1.00  0.00     0.067 A 
HETATM    6  O   UNL     1      62.896   8.917   5.885  1.00  0.00    -0.304 OA
HETATM    7  C   UNL     1      62.251  10.481   4.082  1.00  0.00     0.068 A 
HETATM    8  C   UNL     1      62.113   8.085   2.538  1.00  0.00     0.035 A 
HETATM    9  C   UNL     1      61.923  10.529   2.719  1.00  0.00     0.028 A 
HETATM   10  C   UNL     1      61.813   9.339   1.979  1.00  0.00     0.031 A 
ENDROOT
BRANCH   9  11
HETATM   11  N   UNL     1      61.478  11.735   2.157  1.00  0.00    -0.399 N 
HETATM   12  H   UNL     1      62.130  12.387   1.813  1.00  0.00     0.156 HD
HETATM   13  H   UNL     1      60.514  11.929   2.107  1.00  0.00     0.156 HD
ENDBRANCH   9  11
TORSDOF 1
ENDMDL
MODEL 9
REMARK VINA RESULT:      -3.9      2.278      2.790
REMARK  1 active torsions:
REMARK  status: ('A' for Active; 'I' for Inactive)
REMARK    1  A    between atoms: C_9  and  N_10 
ROOT
HETATM    1  N   UNL     1      62.299  10.254   4.455  1.00  0.00    -0.345 N 
ATOM      2  HN  UNL     1      61.430  10.569   4.023  1.00  0.00     0.167 HD
HETATM    3  C   UNL     1      64.148   9.076   4.994  1.00  0.00     0.105 A 
HETATM    4  C   UNL     1      62.982  10.821   5.426  1.00  0.00     0.234 A 
HETATM    5  C   UNL     1      63.040   9.136   4.164  1.00  0.00     0.067 A 
HETATM    6  O   UNL     1      64.114  10.169   5.814  1.00  0.00    -0.304 OA
HETATM    7  C   UNL     1      65.113   8.076   4.959  1.00  0.00     0.068 A 
HETATM    8  C   UNL     1      62.861   8.132   3.208  1.00  0.00     0.035 A 
HETATM    9  C   UNL     1      64.907   7.045   4.031  1.00  0.00     0.028 A 
HETATM   10  C   UNL     1      63.820   7.106   3.142  1.00  0.00     0.031 A 
ENDROOT
BRANCH   9  11
HETATM   11  N   UNL     1      65.908   6.082   3.832  1.00  0.00    -0.399 N 
HETATM   12  H   UNL     1      66.320   5.636   4.607  1.00  0.00     0.156 HD
HETATM   13  H   UNL     1      66.197   5.853   2.920  1.00  0.00     0.156 HD
ENDBRANCH   9  11
TORSDOF 1
ENDMDL
