MODEL 1
REMARK VINA RESULT:      -5.0      0.000      0.000
REMARK  1 active torsions:
REMARK  status: ('A' for Active; 'I' for Inactive)
REMARK    1  A    between atoms: C_1  and  C_2 
REMARK       I    between atoms: C_1  and  N_3 
ROOT
HETATM    1  C   UNL     1      63.189   8.115   5.921  1.00  0.00     0.255 C 
HETATM    2  N   UNL     1      64.358   7.411   5.578  1.00  0.00    -0.345 N 
HETATM    3  N   UNL     1      66.964   6.092   5.105  1.00  0.00    -0.072 N 
HETATM    4  O   UNL     1      62.544   7.828   6.927  1.00  0.00    -0.267 OA
HETATM    5  C   UNL     1      65.186   7.741   4.416  1.00  0.00     0.154 C 
HETATM    6  C   UNL     1      64.987   6.611   6.634  1.00  0.00     0.154 C 
HETATM    7  C   UNL     1      66.178   6.651   3.997  1.00  0.00     0.254 C 
HETATM    8  C   UNL     1      66.024   5.587   6.126  1.00  0.00     0.254 C 
HETATM    9  C   UNL     1      67.900   7.071   5.658  1.00  0.00     0.269 C 
HETATM   10  H   UNL     1      67.542   5.323   4.765  1.00  0.00     0.279 HD
ENDROOT
BRANCH   1  11
HETATM   11  C   UNL     1      62.738   9.198   5.045  1.00  0.00     0.056 A 
HETATM   12  C   UNL     1      62.846  10.536   5.367  1.00  0.00     0.158 A 
HETATM   13  O   UNL     1      62.295  11.320   4.401  1.00  0.00    -0.334 OA
HETATM   14  C   UNL     1      61.876  10.490   3.415  1.00  0.00     0.142 A 
HETATM   15  C   UNL     1      62.181   9.189   3.731  1.00  0.00     0.043 A 
ENDBRANCH   1  11
TORSDOF 1
ENDMDL
MODEL 2
REMARK VINA RESULT:      -4.8      2.323      5.245
REMARK  1 active torsions:
REMARK  status: ('A' for Active; 'I' for Inactive)
REMARK    1  A    between atoms: C_1  and  C_2 
REMARK       I    between atoms: C_1  and  N_3 
ROOT
HETATM    1  C   UNL     1      65.048   8.438   5.212  1.00  0.00     0.255 C 
HETATM    2  N   UNL     1      63.957   8.609   4.340  1.00  0.00    -0.345 N 
HETATM    3  N   UNL     1      61.468   8.909   2.769  1.00  0.00    -0.072 N 
HETATM    4  O   UNL     1      65.342   9.297   6.042  1.00  0.00    -0.267 OA
HETATM    5  C   UNL     1      63.538   7.600   3.367  1.00  0.00     0.154 C 
HETATM    6  C   UNL     1      62.968   9.629   4.705  1.00  0.00     0.154 C 
HETATM    7  C   UNL     1      62.595   8.108   2.271  1.00  0.00     0.254 C 
HETATM    8  C   UNL     1      62.015  10.030   3.559  1.00  0.00     0.254 C 
HETATM    9  C   UNL     1      60.526   8.101   3.544  1.00  0.00     0.269 C 
HETATM   10  H   UNL     1      60.932   9.275   1.982  1.00  0.00     0.279 HD
ENDROOT
BRANCH   1  11
HETATM   11  C   UNL     1      65.847   7.216   5.108  1.00  0.00     0.056 A 
HETATM   12  C   UNL     1      65.649   6.104   5.902  1.00  0.00     0.158 A 
HETATM   13  O   UNL     1      66.568   5.138   5.632  1.00  0.00    -0.334 OA
HETATM   14  C   UNL     1      67.336   5.600   4.616  1.00  0.00     0.142 A 
HETATM   15  C   UNL     1      66.896   6.838   4.217  1.00  0.00     0.043 A 
ENDBRANCH   1  11
TORSDOF 1
ENDMDL
MODEL 3
REMARK VINA RESULT:      -4.7      1.526      1.707
REMARK  1 active torsions:
REMARK  status: ('A' for Active; 'I' for Inactive)
REMARK    1  A    between atoms: C_1  and  C_2 
REMARK       I    between atoms: C_1  and  N_3 
ROOT
HETATM    1  C   UNL     1      62.031   8.129   4.257  1.00  0.00     0.255 C 
HETATM    2  N   UNL     1      63.268   7.574   4.633  1.00  0.00    -0.345 N 
HETATM    3  N   UNL     1      65.777   6.460   5.737  1.00  0.00    -0.072 N 
HETATM    4  O   UNL     1      60.982   7.503   4.397  1.00  0.00    -0.267 OA
HETATM    5  C   UNL     1      64.538   8.294   4.528  1.00  0.00     0.154 C 
HETATM    6  C   UNL     1      63.232   6.420   5.538  1.00  0.00     0.154 C 
HETATM    7  C   UNL     1      65.791   7.415   4.620  1.00  0.00     0.254 C 
HETATM    8  C   UNL     1      64.558   5.634   5.620  1.00  0.00     0.254 C 
HETATM    9  C   UNL     1      65.859   7.135   7.032  1.00  0.00     0.269 C 
HETATM   10  H   UNL     1      66.600   5.860   5.687  1.00  0.00     0.279 HD
ENDROOT
BRANCH   1  11
HETATM   11  C   UNL     1      62.010   9.473   3.677  1.00  0.00     0.056 A 
HETATM   12  C   UNL     1      62.136  10.629   4.422  1.00  0.00     0.158 A 
HETATM   13  O   UNL     1      62.023  11.734   3.637  1.00  0.00    -0.334 OA
HETATM   14  C   UNL     1      61.877  11.297   2.363  1.00  0.00     0.142 A 
HETATM   15  C   UNL     1      61.927   9.925   2.326  1.00  0.00     0.043 A 
ENDBRANCH   1  11
TORSDOF 1
ENDMDL
MODEL 4
REMARK VINA RESULT:      -4.7      2.534      5.272
REMARK  1 active torsions:
REMARK  status: ('A' for Active; 'I' for Inactive)
REMARK    1  A    between atoms: C_1  and  C_2 
REMARK       I    between atoms: C_1  and  N_3 
ROOT
HETATM    1  C   UNL     1      64.282   7.121   3.704  1.00  0.00     0.255 C 
HETATM    2  N   UNL     1      63.225   7.994   3.390  1.00  0.00    -0.345 N 
HETATM    3  N   UNL     1      61.193   9.946   2.487  1.00  0.00    -0.072 N 
HETATM    4  O   UNL     1      64.539   6.149   2.996  1.00  0.00    -0.267 OA
HETATM    5  C   UNL     1      62.905   9.188   4.175  1.00  0.00     0.154 C 
HETATM    6  C   UNL     1      62.705   7.943   2.020  1.00  0.00     0.154 C 
HETATM    7  C   UNL     1      61.519   9.786   3.911  1.00  0.00     0.254 C 
HETATM    8  C   UNL     1      61.335   8.630   1.832  1.00  0.00     0.254 C 
HETATM    9  C   UNL     1      62.023  10.968   1.849  1.00  0.00     0.269 C 
HETATM   10  H   UNL     1      60.232  10.273   2.388  1.00  0.00     0.279 HD
ENDROOT
BRANCH   1  11
HETATM   11  C   UNL     1      65.074   7.380   4.908  1.00  0.00     0.056 A 
HETATM   12  C   UNL     1      64.715   6.942   6.167  1.00  0.00     0.158 A 
HETATM   13  O   UNL     1      65.599   7.373   7.108  1.00  0.00    -0.334 OA
HETATM   14  C   UNL     1      66.571   8.051   6.450  1.00  0.00     0.142 A 
HETATM   15  C   UNL     1      66.331   8.028   5.099  1.00  0.00     0.043 A 
ENDBRANCH   1  11
TORSDOF 1
ENDMDL
MODEL 5
REMARK VINA RESULT:      -4.6      1.988      2.830
REMARK  1 active torsions:
REMARK  status: ('A' for Active; 'I' for Inactive)
REMARK    1  A    between atoms: C_1  and  C_2 
REMARK       I    between atoms: C_1  and  N_3 
ROOT
HETATM    1  C   UNL     1      64.243   8.537   5.175  1.00  0.00     0.255 C 
HETATM    2  N   UNL     1      63.748   7.294   5.610  1.00  0.00    -0.345 N 
HETATM    3  N   UNL     1      62.843   4.550   6.249  1.00  0.00    -0.072 N 
HETATM    4  O   UNL     1      65.440   8.807   5.248  1.00  0.00    -0.267 OA
HETATM    5  C   UNL     1      62.340   6.906   5.504  1.00  0.00     0.154 C 
HETATM    6  C   UNL     1      64.723   6.210   5.775  1.00  0.00     0.154 C 
HETATM    7  C   UNL     1      61.934   5.700   6.359  1.00  0.00     0.254 C 
HETATM    8  C   UNL     1      64.205   5.007   6.591  1.00  0.00     0.254 C 
HETATM    9  C   UNL     1      62.787   3.936   4.922  1.00  0.00     0.269 C 
HETATM   10  H   UNL     1      62.555   3.820   6.900  1.00  0.00     0.279 HD
ENDROOT
BRANCH   1  11
HETATM   11  C   UNL     1      63.300   9.522   4.643  1.00  0.00     0.056 A 
HETATM   12  C   UNL     1      62.963  10.689   5.299  1.00  0.00     0.158 A 
HETATM   13  O   UNL     1      62.024  11.388   4.606  1.00  0.00    -0.334 OA
HETATM   14  C   UNL     1      61.787  10.700   3.463  1.00  0.00     0.142 A 
HETATM   15  C   UNL     1      62.589   9.587   3.407  1.00  0.00     0.043 A 
ENDBRANCH   1  11
TORSDOF 1
ENDMDL
MODEL 6
REMARK VINA RESULT:      -4.4      2.198      2.787
REMARK  1 active torsions:
REMARK  status: ('A' for Active; 'I' for Inactive)
REMARK    1  A    between atoms: C_1  and  C_2 
REMARK       I    between atoms: C_1  and  N_3 
ROOT
HETATM    1  C   UNL     1      64.713   8.181   5.515  1.00  0.00     0.255 C 
HETATM    2  N   UNL     1      65.329   7.207   6.322  1.00  0.00    -0.345 N 
HETATM    3  N   UNL     1      66.895   5.199   7.828  1.00  0.00    -0.072 N 
HETATM    4  O   UNL     1      65.007   9.371   5.615  1.00  0.00    -0.267 OA
HETATM    5  C   UNL     1      65.048   5.774   6.211  1.00  0.00     0.154 C 
HETATM    6  C   UNL     1      66.581   7.587   6.985  1.00  0.00     0.154 C 
HETATM    7  C   UNL     1      65.515   4.929   7.402  1.00  0.00     0.254 C 
HETATM    8  C   UNL     1      67.010   6.641   8.126  1.00  0.00     0.254 C 
HETATM    9  C   UNL     1      67.869   4.766   6.827  1.00  0.00     0.269 C 
HETATM   10  H   UNL     1      67.107   4.659   8.668  1.00  0.00     0.279 HD
ENDROOT
BRANCH   1  11
HETATM   11  C   UNL     1      63.694   7.756   4.553  1.00  0.00     0.056 A 
HETATM   12  C   UNL     1      62.337   7.845   4.789  1.00  0.00     0.158 A 
HETATM   13  O   UNL     1      61.623   7.326   3.753  1.00  0.00    -0.334 OA
HETATM   14  C   UNL     1      62.520   6.946   2.811  1.00  0.00     0.142 A 
HETATM   15  C   UNL     1      63.795   7.246   3.224  1.00  0.00     0.043 A 
ENDBRANCH   1  11
TORSDOF 1
ENDMDL
MODEL 7
REMARK VINA RESULT:      -4.1      2.162      2.734
REMARK  1 active torsions:
REMARK  status: ('A' for Active; 'I' for Inactive)
REMARK    1  A    between atoms: C_1  and  C_2 
REMARK       I    between atoms: C_1  and  N_3 
ROOT
HETATM    1  C   UNL     1      64.499   6.770   3.595  1.00  0.00     0.255 C 
HETATM    2  N   UNL     1      65.488   6.983   4.571  1.00  0.00    -0.345 N 
HETATM    3  N   UNL     1      67.490   7.133   6.746  1.00  0.00    -0.072 N 
HETATM    4  O   UNL     1      64.680   5.987   2.664  1.00  0.00    -0.267 OA
HETATM    5  C   UNL     1      65.306   7.869   5.722  1.00  0.00     0.154 C 
HETATM    6  C   UNL     1      66.553   5.979   4.670  1.00  0.00     0.154 C 
HETATM    7  C   UNL     1      66.598   8.262   6.449  1.00  0.00     0.254 C 
HETATM    8  C   UNL     1      67.787   6.436   5.477  1.00  0.00     0.254 C 
HETATM    9  C   UNL     1      66.915   6.232   7.745  1.00  0.00     0.269 C 
HETATM   10  H   UNL     1      68.358   7.478   7.156  1.00  0.00     0.279 HD
ENDROOT
BRANCH   1  11
HETATM   11  C   UNL     1      63.240   7.512   3.694  1.00  0.00     0.056 A 
HETATM   12  C   UNL     1      62.103   7.010   4.294  1.00  0.00     0.158 A 
HETATM   13  O   UNL     1      61.067   7.886   4.192  1.00  0.00    -0.334 OA
HETATM   14  C   UNL     1      61.547   8.991   3.572  1.00  0.00     0.142 A 
HETATM   15  C   UNL     1      62.885   8.838   3.304  1.00  0.00     0.043 A 
ENDBRANCH   1  11
TORSDOF 1
ENDMDL
MODEL 8
REMARK VINA RESULT:      -4.1      2.862      5.791
REMARK  1 active torsions:
REMARK  status: ('A' for Active; 'I' for Inactive)
REMARK    1  A    between atoms: C_1  and  C_2 
REMARK       I    between atoms: C_1  and  N_3 
ROOT
HETATM    1  C   UNL     1      66.433   5.769   5.515  1.00  0.00     0.255 C 
HETATM    2  N   UNL     1      65.212   6.438   5.313  1.00  0.00    -0.345 N 
HETATM    3  N   UNL     1      62.826   8.115   4.812  1.00  0.00    -0.072 N 
HETATM    4  O   UNL     1      67.143   5.437   4.568  1.00  0.00    -0.267 OA
HETATM    5  C   UNL     1      64.352   6.895   6.406  1.00  0.00     0.154 C 
HETATM    6  C   UNL     1      65.007   7.065   4.002  1.00  0.00     0.154 C 
HETATM    7  C   UNL     1      62.918   7.251   5.997  1.00  0.00     0.254 C 
HETATM    8  C   UNL     1      63.543   7.452   3.704  1.00  0.00     0.254 C 
HETATM    9  C   UNL     1      63.343   9.458   5.075  1.00  0.00     0.269 C 
HETATM   10  H   UNL     1      61.847   8.244   4.556  1.00  0.00     0.279 HD
ENDROOT
BRANCH   1  11
HETATM   11  C   UNL     1      66.845   5.457   6.886  1.00  0.00     0.056 A 
HETATM   12  C   UNL     1      66.479   4.303   7.549  1.00  0.00     0.158 A 
HETATM   13  O   UNL     1      66.951   4.300   8.825  1.00  0.00    -0.334 OA
HETATM   14  C   UNL     1      67.677   5.434   8.977  1.00  0.00     0.142 A 
HETATM   15  C   UNL     1      67.697   6.144   7.802  1.00  0.00     0.043 A 
ENDBRANCH   1  11
TORSDOF 1
ENDMDL
MODEL 9
REMARK VINA RESULT:      -4.0      3.528      5.564
REMARK  1 active torsions:
REMARK  status: ('A' for Active; 'I' for Inactive)
REMARK    1  A    between atoms: C_1  and  C_2 
REMARK       I    between atoms: C_1  and  N_3 
ROOT
HETATM    1  C   UNL     1      62.411   8.005   3.053  1.00  0.00     0.255 C 
HETATM    2  N   UNL     1      61.154   7.379   2.969  1.00  0.00    -0.345 N 
HETATM    3  N   UNL     1      58.483   6.199   2.492  1.00  0.00    -0.072 N 
HETATM    4  O   UNL     1      63.377   7.583   2.419  1.00  0.00    -0.267 OA
HETATM    5  C   UNL     1      59.963   7.868   3.667  1.00  0.00     0.154 C 
HETATM    6  C   UNL     1      60.933   6.478   1.833  1.00  0.00     0.154 C 
HETATM    7  C   UNL     1      58.809   6.863   3.761  1.00  0.00     0.254 C 
HETATM    8  C   UNL     1      59.709   5.550   1.984  1.00  0.00     0.254 C 
HETATM    9  C   UNL     1      57.913   7.131   1.519  1.00  0.00     0.269 C 
HETATM   10  H   UNL     1      57.763   5.492   2.648  1.00  0.00     0.279 HD
ENDROOT
BRANCH   1  11
HETATM   11  C   UNL     1      62.560   9.171   3.925  1.00  0.00     0.056 A 
HETATM   12  C   UNL     1      63.270   9.154   5.109  1.00  0.00     0.158 A 
HETATM   13  O   UNL     1      63.194  10.355   5.744  1.00  0.00    -0.334 OA
HETATM   14  C   UNL     1      62.476  11.178   4.943  1.00  0.00     0.142 A 
HETATM   15  C   UNL     1      62.120  10.523   3.790  1.00  0.00     0.043 A 
ENDBRANCH   1  11
TORSDOF 1
ENDMDL
