MODEL 1
REMARK VINA RESULT:      -5.3      0.000      0.000
REMARK  3 active torsions:
REMARK  status: ('A' for Active; 'I' for Inactive)
REMARK       I    between atoms: N_1  and  C_2 
REMARK    1  A    between atoms: C_2  and  C_4 
REMARK    2  A    between atoms: C_4  and  C_5 
REMARK    3  A    between atoms: C_5  and  C_8 
ROOT
HETATM    1  N   UNL     1      65.719   7.120   5.992  1.00  0.00    -0.352 N 
HETATM    2  C   UNL     1      65.060   8.191   5.429  1.00  0.00     0.219 C 
HETATM    3  O   UNL     1      65.233   9.344   5.832  1.00  0.00    -0.273 OA
HETATM    4  C   UNL     1      65.660   5.723   5.592  1.00  0.00     0.126 C 
HETATM    5  C   UNL     1      66.655   7.315   7.085  1.00  0.00     0.126 C 
HETATM    6  C   UNL     1      67.326   5.962   7.280  1.00  0.00     0.021 C 
HETATM    7  C   UNL     1      66.291   4.974   6.756  1.00  0.00     0.021 C 
ENDROOT
BRANCH   2   8
HETATM    8  C   UNL     1      64.058   7.881   4.329  1.00  0.00     0.103 C 
BRANCH   8   9
HETATM    9  C   UNL     1      62.619   8.181   4.763  1.00  0.00     0.014 C 
BRANCH   9  10
HETATM   10  C   UNL     1      61.956   9.231   3.872  1.00  0.00    -0.014 C 
HETATM   11  C   UNL     1      62.318   9.101   2.391  1.00  0.00     0.004 C 
HETATM   12  C   UNL     1      61.917  10.449   1.784  1.00  0.00     0.000 C 
HETATM   13  C   UNL     1      61.783  11.418   2.961  1.00  0.00     0.000 C 
HETATM   14  C   UNL     1      62.360  10.675   4.158  1.00  0.00     0.004 C 
ENDBRANCH   9  10
ENDBRANCH   8   9
ENDBRANCH   2   8
TORSDOF 3
ENDMDL
MODEL 2
REMARK VINA RESULT:      -5.2      1.282      1.689
REMARK  3 active torsions:
REMARK  status: ('A' for Active; 'I' for Inactive)
REMARK       I    between atoms: N_1  and  C_2 
REMARK    1  A    between atoms: C_2  and  C_4 
REMARK    2  A    between atoms: C_4  and  C_5 
REMARK    3  A    between atoms: C_5  and  C_8 
ROOT
HETATM    1  N   UNL     1      65.774   6.756   6.698  1.00  0.00    -0.352 N 
HETATM    2  C   UNL     1      64.573   7.129   6.137  1.00  0.00     0.219 C 
HETATM    3  O   UNL     1      63.555   7.276   6.817  1.00  0.00    -0.273 OA
HETATM    4  C   UNL     1      67.060   6.599   6.038  1.00  0.00     0.126 C 
HETATM    5  C   UNL     1      65.886   6.529   8.129  1.00  0.00     0.126 C 
HETATM    6  C   UNL     1      67.376   6.355   8.388  1.00  0.00     0.021 C 
HETATM    7  C   UNL     1      67.912   5.853   7.053  1.00  0.00     0.021 C 
ENDROOT
BRANCH   2   8
HETATM    8  C   UNL     1      64.541   7.288   4.625  1.00  0.00     0.103 C 
BRANCH   8   9
HETATM    9  C   UNL     1      63.122   7.547   4.105  1.00  0.00     0.014 C 
BRANCH   9  10
HETATM   10  C   UNL     1      62.983   8.935   3.480  1.00  0.00    -0.014 C 
HETATM   11  C   UNL     1      62.393   9.982   4.426  1.00  0.00     0.004 C 
HETATM   12  C   UNL     1      61.957  11.124   3.503  1.00  0.00     0.000 C 
HETATM   13  C   UNL     1      61.886  10.525   2.096  1.00  0.00     0.000 C 
HETATM   14  C   UNL     1      62.024   9.021   2.295  1.00  0.00     0.004 C 
ENDBRANCH   9  10
ENDBRANCH   8   9
ENDBRANCH   2   8
TORSDOF 3
ENDMDL
MODEL 3
REMARK VINA RESULT:      -4.9      1.707      6.098
REMARK  3 active torsions:
REMARK  status: ('A' for Active; 'I' for Inactive)
REMARK       I    between atoms: N_1  and  C_2 
REMARK    1  A    between atoms: C_2  and  C_4 
REMARK    2  A    between atoms: C_4  and  C_5 
REMARK    3  A    between atoms: C_5  and  C_8 
ROOT
HETATM    1  N   UNL     1      62.781   9.313   3.711  1.00  0.00    -0.352 N 
HETATM    2  C   UNL     1      63.336   9.288   4.971  1.00  0.00     0.219 C 
HETATM    3  O   UNL     1      63.250  10.250   5.739  1.00  0.00    -0.273 OA
HETATM    4  C   UNL     1      62.754   8.245   2.724  1.00  0.00     0.126 C 
HETATM    5  C   UNL     1      62.060  10.483   3.241  1.00  0.00     0.126 C 
HETATM    6  C   UNL     1      61.423  10.054   1.925  1.00  0.00     0.021 C 
HETATM    7  C   UNL     1      62.338   8.938   1.436  1.00  0.00     0.021 C 
ENDROOT
BRANCH   2   8
HETATM    8  C   UNL     1      64.120   8.042   5.352  1.00  0.00     0.103 C 
BRANCH   8   9
HETATM    9  C   UNL     1      65.629   8.231   5.155  1.00  0.00     0.014 C 
BRANCH   9  10
HETATM   10  C   UNL     1      66.437   7.659   6.319  1.00  0.00    -0.014 C 
HETATM   11  C   UNL     1      67.531   6.679   5.888  1.00  0.00     0.004 C 
HETATM   12  C   UNL     1      67.900   5.936   7.175  1.00  0.00     0.000 C 
HETATM   13  C   UNL     1      66.741   6.171   8.146  1.00  0.00     0.000 C 
HETATM   14  C   UNL     1      65.642   6.810   7.308  1.00  0.00     0.004 C 
ENDBRANCH   9  10
ENDBRANCH   8   9
ENDBRANCH   2   8
TORSDOF 3
ENDMDL
MODEL 4
REMARK VINA RESULT:      -4.6      1.521      2.204
REMARK  3 active torsions:
REMARK  status: ('A' for Active; 'I' for Inactive)
REMARK       I    between atoms: N_1  and  C_2 
REMARK    1  A    between atoms: C_2  and  C_4 
REMARK    2  A    between atoms: C_4  and  C_5 
REMARK    3  A    between atoms: C_5  and  C_8 
ROOT
HETATM    1  N   UNL     1      65.625   6.550   5.524  1.00  0.00    -0.352 N 
HETATM    2  C   UNL     1      64.667   7.443   5.948  1.00  0.00     0.219 C 
HETATM    3  O   UNL     1      63.960   7.219   6.934  1.00  0.00    -0.273 OA
HETATM    4  C   UNL     1      66.562   6.699   4.422  1.00  0.00     0.126 C 
HETATM    5  C   UNL     1      65.845   5.303   6.236  1.00  0.00     0.126 C 
HETATM    6  C   UNL     1      67.100   4.706   5.614  1.00  0.00     0.021 C 
HETATM    7  C   UNL     1      67.116   5.298   4.210  1.00  0.00     0.021 C 
ENDROOT
BRANCH   2   8
HETATM    8  C   UNL     1      64.472   8.694   5.105  1.00  0.00     0.103 C 
BRANCH   8   9
HETATM    9  C   UNL     1      63.032   8.824   4.596  1.00  0.00     0.014 C 
BRANCH   9  10
HETATM   10  C   UNL     1      62.954   8.774   3.071  1.00  0.00    -0.014 C 
HETATM   11  C   UNL     1      61.764   9.537   2.488  1.00  0.00     0.004 C 
HETATM   12  C   UNL     1      61.642   9.011   1.054  1.00  0.00     0.000 C 
HETATM   13  C   UNL     1      62.426   7.697   1.019  1.00  0.00     0.000 C 
HETATM   14  C   UNL     1      62.744   7.383   2.475  1.00  0.00     0.004 C 
ENDBRANCH   9  10
ENDBRANCH   8   9
ENDBRANCH   2   8
TORSDOF 3
ENDMDL
MODEL 5
REMARK VINA RESULT:      -4.4      2.299      5.918
REMARK  3 active torsions:
REMARK  status: ('A' for Active; 'I' for Inactive)
REMARK       I    between atoms: N_1  and  C_2 
REMARK    1  A    between atoms: C_2  and  C_4 
REMARK    2  A    between atoms: C_4  and  C_5 
REMARK    3  A    between atoms: C_5  and  C_8 
ROOT
HETATM    1  N   UNL     1      62.565   8.817   2.572  1.00  0.00    -0.352 N 
HETATM    2  C   UNL     1      62.935   7.507   2.366  1.00  0.00     0.219 C 
HETATM    3  O   UNL     1      62.797   6.957   1.270  1.00  0.00    -0.273 OA
HETATM    4  C   UNL     1      62.716   9.610   3.782  1.00  0.00     0.126 C 
HETATM    5  C   UNL     1      61.999   9.608   1.492  1.00  0.00     0.126 C 
HETATM    6  C   UNL     1      61.927  11.028   2.036  1.00  0.00     0.021 C 
HETATM    7  C   UNL     1      61.836  10.827   3.543  1.00  0.00     0.021 C 
ENDROOT
BRANCH   2   8
HETATM    8  C   UNL     1      63.464   6.745   3.571  1.00  0.00     0.103 C 
BRANCH   8   9
HETATM    9  C   UNL     1      64.940   6.364   3.406  1.00  0.00     0.014 C 
BRANCH   9  10
HETATM   10  C   UNL     1      65.749   6.637   4.674  1.00  0.00    -0.014 C 
HETATM   11  C   UNL     1      65.140   6.028   5.938  1.00  0.00     0.004 C 
HETATM   12  C   UNL     1      65.840   6.759   7.086  1.00  0.00     0.000 C 
HETATM   13  C   UNL     1      66.449   8.022   6.472  1.00  0.00     0.000 C 
HETATM   14  C   UNL     1      65.862   8.107   5.070  1.00  0.00     0.004 C 
ENDBRANCH   9  10
ENDBRANCH   8   9
ENDBRANCH   2   8
TORSDOF 3
ENDMDL
MODEL 6
REMARK VINA RESULT:      -4.3      3.249      4.538
REMARK  3 active torsions:
REMARK  status: ('A' for Active; 'I' for Inactive)
REMARK       I    between atoms: N_1  and  C_2 
REMARK    1  A    between atoms: C_2  and  C_4 
REMARK    2  A    between atoms: C_4  and  C_5 
REMARK    3  A    between atoms: C_5  and  C_8 
ROOT
HETATM    1  N   UNL     1      60.629   6.042   6.313  1.00  0.00    -0.352 N 
HETATM    2  C   UNL     1      61.756   6.795   6.071  1.00  0.00     0.219 C 
HETATM    3  O   UNL     1      62.306   7.448   6.962  1.00  0.00    -0.273 OA
HETATM    4  C   UNL     1      59.909   5.185   5.385  1.00  0.00     0.126 C 
HETATM    5  C   UNL     1      60.047   5.984   7.643  1.00  0.00     0.126 C 
HETATM    6  C   UNL     1      58.976   4.904   7.560  1.00  0.00     0.021 C 
HETATM    7  C   UNL     1      58.590   4.900   6.087  1.00  0.00     0.021 C 
ENDROOT
BRANCH   2   8
HETATM    8  C   UNL     1      62.257   6.839   4.636  1.00  0.00     0.103 C 
BRANCH   8   9
HETATM    9  C   UNL     1      63.425   7.818   4.466  1.00  0.00     0.014 C 
BRANCH   9  10
HETATM   10  C   UNL     1      63.118   8.905   3.437  1.00  0.00    -0.014 C 
HETATM   11  C   UNL     1      62.294  10.067   3.992  1.00  0.00     0.004 C 
HETATM   12  C   UNL     1      61.759  10.782   2.748  1.00  0.00     0.000 C 
HETATM   13  C   UNL     1      61.900   9.784   1.596  1.00  0.00     0.000 C 
HETATM   14  C   UNL     1      62.258   8.459   2.257  1.00  0.00     0.004 C 
ENDBRANCH   9  10
ENDBRANCH   8   9
ENDBRANCH   2   8
TORSDOF 3
ENDMDL
MODEL 7
REMARK VINA RESULT:      -4.1      2.685      3.390
REMARK  3 active torsions:
REMARK  status: ('A' for Active; 'I' for Inactive)
REMARK       I    between atoms: N_1  and  C_2 
REMARK    1  A    between atoms: C_2  and  C_4 
REMARK    2  A    between atoms: C_4  and  C_5 
REMARK    3  A    between atoms: C_5  and  C_8 
ROOT
HETATM    1  N   UNL     1      62.471   5.880   5.803  1.00  0.00    -0.352 N 
HETATM    2  C   UNL     1      62.966   7.131   6.098  1.00  0.00     0.219 C 
HETATM    3  O   UNL     1      62.550   7.785   7.059  1.00  0.00    -0.273 OA
HETATM    4  C   UNL     1      62.897   4.976   4.747  1.00  0.00     0.126 C 
HETATM    5  C   UNL     1      61.436   5.278   6.626  1.00  0.00     0.126 C 
HETATM    6  C   UNL     1      61.315   3.845   6.126  1.00  0.00     0.021 C 
HETATM    7  C   UNL     1      61.792   3.932   4.682  1.00  0.00     0.021 C 
ENDROOT
BRANCH   2   8
HETATM    8  C   UNL     1      64.006   7.700   5.147  1.00  0.00     0.103 C 
BRANCH   8   9
HETATM    9  C   UNL     1      63.514   8.979   4.458  1.00  0.00     0.014 C 
BRANCH   9  10
HETATM   10  C   UNL     1      62.505   8.683   3.350  1.00  0.00    -0.014 C 
HETATM   11  C   UNL     1      63.020   7.710   2.288  1.00  0.00     0.004 C 
HETATM   12  C   UNL     1      62.061   7.893   1.109  1.00  0.00     0.000 C 
HETATM   13  C   UNL     1      61.353   9.229   1.345  1.00  0.00     0.000 C 
HETATM   14  C   UNL     1      62.109   9.884   2.494  1.00  0.00     0.004 C 
ENDBRANCH   9  10
ENDBRANCH   8   9
ENDBRANCH   2   8
TORSDOF 3
ENDMDL
MODEL 8
REMARK VINA RESULT:      -4.1      2.391      5.830
REMARK  3 active torsions:
REMARK  status: ('A' for Active; 'I' for Inactive)
REMARK       I    between atoms: N_1  and  C_2 
REMARK    1  A    between atoms: C_2  and  C_4 
REMARK    2  A    between atoms: C_4  and  C_5 
REMARK    3  A    between atoms: C_5  and  C_8 
ROOT
HETATM    1  N   UNL     1      61.746   8.215   3.419  1.00  0.00    -0.352 N 
HETATM    2  C   UNL     1      61.908   7.626   4.653  1.00  0.00     0.219 C 
HETATM    3  O   UNL     1      61.120   6.775   5.075  1.00  0.00    -0.273 OA
HETATM    4  C   UNL     1      62.615   9.183   2.769  1.00  0.00     0.126 C 
HETATM    5  C   UNL     1      60.634   7.846   2.560  1.00  0.00     0.126 C 
HETATM    6  C   UNL     1      60.915   8.532   1.230  1.00  0.00     0.021 C 
HETATM    7  C   UNL     1      61.777   9.726   1.621  1.00  0.00     0.021 C 
ENDROOT
BRANCH   2   8
HETATM    8  C   UNL     1      63.069   8.118   5.502  1.00  0.00     0.103 C 
BRANCH   8   9
HETATM    9  C   UNL     1      63.784   6.966   6.218  1.00  0.00     0.014 C 
BRANCH   9  10
HETATM   10  C   UNL     1      65.223   6.793   5.734  1.00  0.00    -0.014 C 
HETATM   11  C   UNL     1      66.098   8.030   5.945  1.00  0.00     0.004 C 
HETATM   12  C   UNL     1      67.308   7.797   5.035  1.00  0.00     0.000 C 
HETATM   13  C   UNL     1      66.883   6.719   4.036  1.00  0.00     0.000 C 
HETATM   14  C   UNL     1      65.381   6.561   4.233  1.00  0.00     0.004 C 
ENDBRANCH   9  10
ENDBRANCH   8   9
ENDBRANCH   2   8
TORSDOF 3
ENDMDL
MODEL 9
REMARK VINA RESULT:      -4.0      4.298      5.672
REMARK  3 active torsions:
REMARK  status: ('A' for Active; 'I' for Inactive)
REMARK       I    between atoms: N_1  and  C_2 
REMARK    1  A    between atoms: C_2  and  C_4 
REMARK    2  A    between atoms: C_4  and  C_5 
REMARK    3  A    between atoms: C_5  and  C_8 
ROOT
HETATM    1  N   UNL     1      58.912   6.240   5.820  1.00  0.00    -0.352 N 
HETATM    2  C   UNL     1      60.123   6.315   5.169  1.00  0.00     0.219 C 
HETATM    3  O   UNL     1      61.183   6.035   5.734  1.00  0.00    -0.273 OA
HETATM    4  C   UNL     1      57.586   6.483   5.273  1.00  0.00     0.126 C 
HETATM    5  C   UNL     1      58.840   5.816   7.208  1.00  0.00     0.126 C 
HETATM    6  C   UNL     1      57.353   5.652   7.495  1.00  0.00     0.021 C 
HETATM    7  C   UNL     1      56.692   6.596   6.499  1.00  0.00     0.021 C 
ENDROOT
BRANCH   2   8
HETATM    8  C   UNL     1      60.103   6.823   3.736  1.00  0.00     0.103 C 
BRANCH   8   9
HETATM    9  C   UNL     1      61.429   7.486   3.344  1.00  0.00     0.014 C 
BRANCH   9  10
HETATM   10  C   UNL     1      61.276   8.990   3.123  1.00  0.00    -0.014 C 
HETATM   11  C   UNL     1      61.745   9.463   1.746  1.00  0.00     0.004 C 
HETATM   12  C   UNL     1      61.904  10.978   1.900  1.00  0.00     0.000 C 
HETATM   13  C   UNL     1      61.971  11.245   3.406  1.00  0.00     0.000 C 
HETATM   14  C   UNL     1      62.113   9.871   4.048  1.00  0.00     0.004 C 
ENDBRANCH   9  10
ENDBRANCH   8   9
ENDBRANCH   2   8
TORSDOF 3
ENDMDL
