MODEL 1
REMARK VINA RESULT:      -6.0      0.000      0.000
REMARK  1 active torsions:
REMARK  status: ('A' for Active; 'I' for Inactive)
REMARK    1  A    between atoms: C_1  and  C_4 
REMARK       I    between atoms: C_4  and  N_7 
ROOT
HETATM    1  C   UNL     1      64.326   8.023   5.332  1.00  0.00     0.150 A 
HETATM    2  O   UNL     1      63.797   9.268   5.565  1.00  0.00    -0.304 OA
HETATM    3  C   UNL     1      63.957   7.608   4.050  1.00  0.00    -0.009 A 
HETATM    4  C   UNL     1      63.172   8.664   3.490  1.00  0.00     0.007 A 
HETATM    5  C   UNL     1      63.101   9.648   4.462  1.00  0.00     0.087 A 
HETATM    6  C   UNL     1      64.277   6.331   3.358  1.00  0.00     0.052 C 
HETATM    7  C   UNL     1      62.513   8.880   2.264  1.00  0.00     0.015 A 
HETATM    8  C   UNL     1      62.409  10.847   4.308  1.00  0.00     0.038 A 
HETATM    9  C   UNL     1      61.807  10.076   2.077  1.00  0.00     0.001 A 
HETATM   10  C   UNL     1      61.754  11.041   3.085  1.00  0.00     0.003 A 
ENDROOT
BRANCH   1  11
HETATM   11  C   UNL     1      65.133   7.338   6.346  1.00  0.00     0.277 C 
HETATM   12  N   UNL     1      66.526   7.212   6.211  1.00  0.00    -0.355 N 
HETATM   13  C   UNL     1      67.271   6.521   7.252  1.00  0.00     0.152 C 
HETATM   14  C   UNL     1      67.306   7.724   5.099  1.00  0.00     0.152 C 
HETATM   15  O   UNL     1      64.592   6.854   7.345  1.00  0.00    -0.265 OA
ENDBRANCH   1  11
TORSDOF 1
ENDMDL
MODEL 2
REMARK VINA RESULT:      -5.7      1.318      2.388
REMARK  1 active torsions:
REMARK  status: ('A' for Active; 'I' for Inactive)
REMARK    1  A    between atoms: C_1  and  C_4 
REMARK       I    between atoms: C_4  and  N_7 
ROOT
HETATM    1  C   UNL     1      63.885   7.865   4.778  1.00  0.00     0.150 A 
HETATM    2  O   UNL     1      63.818   6.989   3.723  1.00  0.00    -0.304 OA
HETATM    3  C   UNL     1      63.223   9.045   4.428  1.00  0.00    -0.009 A 
HETATM    4  C   UNL     1      62.732   8.858   3.098  1.00  0.00     0.007 A 
HETATM    5  C   UNL     1      63.131   7.588   2.716  1.00  0.00     0.087 A 
HETATM    6  C   UNL     1      63.044  10.283   5.232  1.00  0.00     0.052 C 
HETATM    7  C   UNL     1      61.998   9.636   2.184  1.00  0.00     0.015 A 
HETATM    8  C   UNL     1      62.857   7.027   1.470  1.00  0.00     0.038 A 
HETATM    9  C   UNL     1      61.706   9.102   0.921  1.00  0.00     0.001 A 
HETATM   10  C   UNL     1      62.131   7.819   0.571  1.00  0.00     0.003 A 
ENDROOT
BRANCH   1  11
HETATM   11  C   UNL     1      64.572   7.506   6.022  1.00  0.00     0.277 C 
HETATM   12  N   UNL     1      65.974   7.489   6.107  1.00  0.00    -0.355 N 
HETATM   13  C   UNL     1      66.595   7.124   7.371  1.00  0.00     0.152 C 
HETATM   14  C   UNL     1      66.879   7.812   5.019  1.00  0.00     0.152 C 
HETATM   15  O   UNL     1      63.917   7.208   7.027  1.00  0.00    -0.265 OA
ENDBRANCH   1  11
TORSDOF 1
ENDMDL
MODEL 3
REMARK VINA RESULT:      -5.1      2.005      5.378
REMARK  1 active torsions:
REMARK  status: ('A' for Active; 'I' for Inactive)
REMARK    1  A    between atoms: C_1  and  C_4 
REMARK       I    between atoms: C_4  and  N_7 
ROOT
HETATM    1  C   UNL     1      64.065   8.364   4.854  1.00  0.00     0.150 A 
HETATM    2  O   UNL     1      65.430   8.497   4.790  1.00  0.00    -0.304 OA
HETATM    3  C   UNL     1      63.750   7.397   5.812  1.00  0.00    -0.009 A 
HETATM    4  C   UNL     1      64.992   6.935   6.349  1.00  0.00     0.007 A 
HETATM    5  C   UNL     1      65.983   7.636   5.683  1.00  0.00     0.087 A 
HETATM    6  C   UNL     1      62.410   6.900   6.225  1.00  0.00     0.052 C 
HETATM    7  C   UNL     1      65.373   5.994   7.324  1.00  0.00     0.015 A 
HETATM    8  C   UNL     1      67.347   7.464   5.912  1.00  0.00     0.038 A 
HETATM    9  C   UNL     1      66.737   5.797   7.579  1.00  0.00     0.001 A 
HETATM   10  C   UNL     1      67.708   6.519   6.880  1.00  0.00     0.003 A 
ENDROOT
BRANCH   1  11
HETATM   11  C   UNL     1      63.182   9.165   4.001  1.00  0.00     0.277 C 
HETATM   12  N   UNL     1      62.692  10.413   4.421  1.00  0.00    -0.355 N 
HETATM   13  C   UNL     1      61.820  11.160   3.528  1.00  0.00     0.152 C 
HETATM   14  C   UNL     1      62.988  11.038   5.697  1.00  0.00     0.152 C 
HETATM   15  O   UNL     1      62.852   8.747   2.887  1.00  0.00    -0.265 OA
ENDBRANCH   1  11
TORSDOF 1
ENDMDL
MODEL 4
REMARK VINA RESULT:      -5.1      2.207      2.640
REMARK  1 active torsions:
REMARK  status: ('A' for Active; 'I' for Inactive)
REMARK    1  A    between atoms: C_1  and  C_4 
REMARK       I    between atoms: C_4  and  N_7 
ROOT
HETATM    1  C   UNL     1      63.214   7.499   4.243  1.00  0.00     0.150 A 
HETATM    2  O   UNL     1      63.007   8.678   4.916  1.00  0.00    -0.304 OA
HETATM    3  C   UNL     1      62.914   7.691   2.892  1.00  0.00    -0.009 A 
HETATM    4  C   UNL     1      62.513   9.057   2.755  1.00  0.00     0.007 A 
HETATM    5  C   UNL     1      62.583   9.608   4.023  1.00  0.00     0.087 A 
HETATM    6  C   UNL     1      62.971   6.708   1.778  1.00  0.00     0.052 C 
HETATM    7  C   UNL     1      62.096   9.875   1.687  1.00  0.00     0.015 A 
HETATM    8  C   UNL     1      62.256  10.931   4.317  1.00  0.00     0.038 A 
HETATM    9  C   UNL     1      61.760  11.210   1.949  1.00  0.00     0.001 A 
HETATM   10  C   UNL     1      61.837  11.728   3.244  1.00  0.00     0.003 A 
ENDROOT
BRANCH   1  11
HETATM   11  C   UNL     1      63.676   6.296   4.941  1.00  0.00     0.277 C 
HETATM   12  N   UNL     1      62.820   5.560   5.778  1.00  0.00    -0.355 N 
HETATM   13  C   UNL     1      63.340   4.374   6.442  1.00  0.00     0.152 C 
HETATM   14  C   UNL     1      61.431   5.885   6.043  1.00  0.00     0.152 C 
HETATM   15  O   UNL     1      64.841   5.908   4.802  1.00  0.00    -0.265 OA
ENDBRANCH   1  11
TORSDOF 1
ENDMDL
MODEL 5
REMARK VINA RESULT:      -4.9      2.381      3.065
REMARK  1 active torsions:
REMARK  status: ('A' for Active; 'I' for Inactive)
REMARK    1  A    between atoms: C_1  and  C_4 
REMARK       I    between atoms: C_4  and  N_7 
ROOT
HETATM    1  C   UNL     1      63.100   6.997   3.405  1.00  0.00     0.150 A 
HETATM    2  O   UNL     1      62.809   7.594   2.204  1.00  0.00    -0.304 OA
HETATM    3  C   UNL     1      62.947   7.938   4.426  1.00  0.00    -0.009 A 
HETATM    4  C   UNL     1      62.539   9.157   3.799  1.00  0.00     0.007 A 
HETATM    5  C   UNL     1      62.479   8.890   2.442  1.00  0.00     0.087 A 
HETATM    6  C   UNL     1      63.162   7.768   5.888  1.00  0.00     0.052 C 
HETATM    7  C   UNL     1      62.222  10.455   4.244  1.00  0.00     0.015 A 
HETATM    8  C   UNL     1      62.128   9.832   1.477  1.00  0.00     0.038 A 
HETATM    9  C   UNL     1      61.866  11.426   3.299  1.00  0.00     0.001 A 
HETATM   10  C   UNL     1      61.823  11.119   1.937  1.00  0.00     0.003 A 
ENDROOT
BRANCH   1  11
HETATM   11  C   UNL     1      63.497   5.588   3.478  1.00  0.00     0.277 C 
HETATM   12  N   UNL     1      64.846   5.212   3.585  1.00  0.00    -0.355 N 
HETATM   13  C   UNL     1      65.175   3.796   3.654  1.00  0.00     0.152 C 
HETATM   14  C   UNL     1      65.967   6.132   3.635  1.00  0.00     0.152 C 
HETATM   15  O   UNL     1      62.638   4.700   3.446  1.00  0.00    -0.265 OA
ENDBRANCH   1  11
TORSDOF 1
ENDMDL
MODEL 6
REMARK VINA RESULT:      -4.8      2.027      2.759
REMARK  1 active torsions:
REMARK  status: ('A' for Active; 'I' for Inactive)
REMARK    1  A    between atoms: C_1  and  C_4 
REMARK       I    between atoms: C_4  and  N_7 
ROOT
HETATM    1  C   UNL     1      63.386   8.261   4.166  1.00  0.00     0.150 A 
HETATM    2  O   UNL     1      63.209   8.766   2.902  1.00  0.00    -0.304 OA
HETATM    3  C   UNL     1      62.230   7.573   4.544  1.00  0.00    -0.009 A 
HETATM    4  C   UNL     1      61.321   7.670   3.445  1.00  0.00     0.007 A 
HETATM    5  C   UNL     1      61.969   8.415   2.474  1.00  0.00     0.087 A 
HETATM    6  C   UNL     1      61.943   6.871   5.824  1.00  0.00     0.052 C 
HETATM    7  C   UNL     1      60.018   7.208   3.180  1.00  0.00     0.015 A 
HETATM    8  C   UNL     1      61.407   8.747   1.243  1.00  0.00     0.038 A 
HETATM    9  C   UNL     1      59.424   7.524   1.951  1.00  0.00     0.001 A 
HETATM   10  C   UNL     1      60.108   8.284   0.999  1.00  0.00     0.003 A 
ENDROOT
BRANCH   1  11
HETATM   11  C   UNL     1      64.635   8.476   4.903  1.00  0.00     0.277 C 
HETATM   12  N   UNL     1      65.727   7.603   4.764  1.00  0.00    -0.355 N 
HETATM   13  C   UNL     1      66.939   7.871   5.523  1.00  0.00     0.152 C 
HETATM   14  C   UNL     1      65.754   6.430   3.910  1.00  0.00     0.152 C 
HETATM   15  O   UNL     1      64.745   9.441   5.667  1.00  0.00    -0.265 OA
ENDBRANCH   1  11
TORSDOF 1
ENDMDL
MODEL 7
REMARK VINA RESULT:      -4.7      2.736      3.407
REMARK  1 active torsions:
REMARK  status: ('A' for Active; 'I' for Inactive)
REMARK    1  A    between atoms: C_1  and  C_4 
REMARK       I    between atoms: C_4  and  N_7 
ROOT
HETATM    1  C   UNL     1      63.667   7.616   5.462  1.00  0.00     0.150 A 
HETATM    2  O   UNL     1      63.044   6.998   6.517  1.00  0.00    -0.304 OA
HETATM    3  C   UNL     1      62.779   7.674   4.384  1.00  0.00    -0.009 A 
HETATM    4  C   UNL     1      61.563   7.063   4.825  1.00  0.00     0.007 A 
HETATM    5  C   UNL     1      61.785   6.663   6.132  1.00  0.00     0.087 A 
HETATM    6  C   UNL     1      63.002   8.236   3.026  1.00  0.00     0.052 C 
HETATM    7  C   UNL     1      60.305   6.807   4.247  1.00  0.00     0.015 A 
HETATM    8  C   UNL     1      60.838   6.010   6.918  1.00  0.00     0.038 A 
HETATM    9  C   UNL     1      59.330   6.151   5.011  1.00  0.00     0.001 A 
HETATM   10  C   UNL     1      59.595   5.757   6.324  1.00  0.00     0.003 A 
ENDROOT
BRANCH   1  11
HETATM   11  C   UNL     1      65.048   8.095   5.569  1.00  0.00     0.277 C 
HETATM   12  N   UNL     1      66.138   7.253   5.297  1.00  0.00    -0.355 N 
HETATM   13  C   UNL     1      67.486   7.789   5.420  1.00  0.00     0.152 C 
HETATM   14  C   UNL     1      66.038   5.862   4.893  1.00  0.00     0.152 C 
HETATM   15  O   UNL     1      65.274   9.262   5.904  1.00  0.00    -0.265 OA
ENDBRANCH   1  11
TORSDOF 1
ENDMDL
MODEL 8
REMARK VINA RESULT:      -4.7      3.027      4.053
REMARK  1 active torsions:
REMARK  status: ('A' for Active; 'I' for Inactive)
REMARK    1  A    between atoms: C_1  and  C_4 
REMARK       I    between atoms: C_4  and  N_7 
ROOT
HETATM    1  C   UNL     1      63.025   7.226   2.735  1.00  0.00     0.150 A 
HETATM    2  O   UNL     1      63.270   7.731   3.988  1.00  0.00    -0.304 OA
HETATM    3  C   UNL     1      62.444   8.226   1.950  1.00  0.00    -0.009 A 
HETATM    4  C   UNL     1      62.343   9.387   2.780  1.00  0.00     0.007 A 
HETATM    5  C   UNL     1      62.855   9.024   4.014  1.00  0.00     0.087 A 
HETATM    6  C   UNL     1      61.991   8.152   0.536  1.00  0.00     0.052 C 
HETATM    7  C   UNL     1      61.866  10.700   2.609  1.00  0.00     0.015 A 
HETATM    8  C   UNL     1      62.924   9.880   5.111  1.00  0.00     0.038 A 
HETATM    9  C   UNL     1      61.920  11.587   3.693  1.00  0.00     0.001 A 
HETATM   10  C   UNL     1      62.438  11.180   4.925  1.00  0.00     0.003 A 
ENDROOT
BRANCH   1  11
HETATM   11  C   UNL     1      63.364   5.842   2.393  1.00  0.00     0.277 C 
HETATM   12  N   UNL     1      62.451   4.793   2.596  1.00  0.00    -0.355 N 
HETATM   13  C   UNL     1      62.848   3.440   2.235  1.00  0.00     0.152 C 
HETATM   14  C   UNL     1      61.116   4.944   3.145  1.00  0.00     0.152 C 
HETATM   15  O   UNL     1      64.472   5.575   1.916  1.00  0.00    -0.265 OA
ENDBRANCH   1  11
TORSDOF 1
ENDMDL
MODEL 9
REMARK VINA RESULT:      -4.6      2.304      3.075
REMARK  1 active torsions:
REMARK  status: ('A' for Active; 'I' for Inactive)
REMARK    1  A    between atoms: C_1  and  C_4 
REMARK       I    between atoms: C_4  and  N_7 
ROOT
HETATM    1  C   UNL     1      65.090   6.869   4.087  1.00  0.00     0.150 A 
HETATM    2  O   UNL     1      64.070   7.088   3.194  1.00  0.00    -0.304 OA
HETATM    3  C   UNL     1      65.099   7.904   5.025  1.00  0.00    -0.009 A 
HETATM    4  C   UNL     1      64.025   8.781   4.674  1.00  0.00     0.007 A 
HETATM    5  C   UNL     1      63.437   8.237   3.545  1.00  0.00     0.087 A 
HETATM    6  C   UNL     1      66.023   8.111   6.172  1.00  0.00     0.052 C 
HETATM    7  C   UNL     1      63.499   9.978   5.196  1.00  0.00     0.015 A 
HETATM    8  C   UNL     1      62.352   8.805   2.881  1.00  0.00     0.038 A 
HETATM    9  C   UNL     1      62.408  10.577   4.551  1.00  0.00     0.001 A 
HETATM   10  C   UNL     1      61.847  10.000   3.410  1.00  0.00     0.003 A 
ENDROOT
BRANCH   1  11
HETATM   11  C   UNL     1      65.965   5.699   3.970  1.00  0.00     0.277 C 
HETATM   12  N   UNL     1      65.660   4.489   4.616  1.00  0.00    -0.355 N 
HETATM   13  C   UNL     1      66.569   3.364   4.461  1.00  0.00     0.152 C 
HETATM   14  C   UNL     1      64.490   4.257   5.443  1.00  0.00     0.152 C 
HETATM   15  O   UNL     1      66.997   5.762   3.294  1.00  0.00    -0.265 OA
ENDBRANCH   1  11
TORSDOF 1
ENDMDL
