MODEL 1
REMARK VINA RESULT:      -5.1      0.000      0.000
REMARK  1 active torsions:
REMARK  status: ('A' for Active; 'I' for Inactive)
REMARK    1  A    between atoms: C_1  and  C_5 
REMARK       I    between atoms: C_5  and  N_10 
ROOT
HETATM    1  C   UNL     1      64.977   8.142   5.159  1.00  0.00     0.108 A 
HETATM    2  C   UNL     1      64.084   9.180   4.972  1.00  0.00     0.125 A 
HETATM    3  S   UNL     1      64.629   6.855   4.056  1.00  0.00    -0.091 SA
HETATM    4  C   UNL     1      63.116   8.902   3.970  1.00  0.00     0.110 A 
HETATM    5  C   UNL     1      63.286   7.675   3.388  1.00  0.00     0.090 A 
HETATM    6  O   UNL     1      64.109  10.332   5.690  1.00  0.00    -0.345 OA
HETATM    7  O   UNL     1      62.094   9.719   3.625  1.00  0.00    -0.346 OA
HETATM    8  C   UNL     1      62.833  10.994   5.615  1.00  0.00     0.202 C 
HETATM    9  C   UNL     1      62.260  11.028   4.191  1.00  0.00     0.202 C 
ENDROOT
BRANCH   1  10
HETATM   10  C   UNL     1      66.068   7.952   6.107  1.00  0.00     0.261 C 
HETATM   11  O   UNL     1      67.212   8.365   5.928  1.00  0.00    -0.267 OA
HETATM   12  N   UNL     1      65.749   7.236   7.246  1.00  0.00    -0.361 N 
HETATM   13  C   UNL     1      66.767   6.838   8.191  1.00  0.00     0.149 C 
HETATM   14  H   UNL     1      64.811   6.993   7.417  1.00  0.00     0.162 HD
ENDBRANCH   1  10
TORSDOF 1
ENDMDL
MODEL 2
REMARK VINA RESULT:      -4.7      2.181      5.136
REMARK  1 active torsions:
REMARK  status: ('A' for Active; 'I' for Inactive)
REMARK    1  A    between atoms: C_1  and  C_5 
REMARK       I    between atoms: C_5  and  N_10 
ROOT
HETATM    1  C   UNL     1      65.760   7.360   5.447  1.00  0.00     0.108 A 
HETATM    2  C   UNL     1      66.089   6.687   6.609  1.00  0.00     0.125 A 
HETATM    3  S   UNL     1      66.655   6.713   4.115  1.00  0.00    -0.091 SA
HETATM    4  C   UNL     1      67.081   5.690   6.409  1.00  0.00     0.110 A 
HETATM    5  C   UNL     1      67.486   5.594   5.104  1.00  0.00     0.090 A 
HETATM    6  O   UNL     1      65.543   6.968   7.820  1.00  0.00    -0.345 OA
HETATM    7  O   UNL     1      67.626   4.926   7.383  1.00  0.00    -0.346 OA
HETATM    8  C   UNL     1      66.384   6.462   8.874  1.00  0.00     0.202 C 
HETATM    9  C   UNL     1      66.884   5.036   8.607  1.00  0.00     0.202 C 
ENDROOT
BRANCH   1  10
HETATM   10  C   UNL     1      64.868   8.484   5.189  1.00  0.00     0.261 C 
HETATM   11  O   UNL     1      64.935   9.562   5.776  1.00  0.00    -0.267 OA
HETATM   12  N   UNL     1      63.891   8.262   4.235  1.00  0.00    -0.361 N 
HETATM   13  C   UNL     1      62.846   9.229   3.994  1.00  0.00     0.149 C 
HETATM   14  H   UNL     1      63.909   7.429   3.711  1.00  0.00     0.162 HD
ENDBRANCH   1  10
TORSDOF 1
ENDMDL
MODEL 3
REMARK VINA RESULT:      -4.5      2.165      4.712
REMARK  1 active torsions:
REMARK  status: ('A' for Active; 'I' for Inactive)
REMARK    1  A    between atoms: C_1  and  C_5 
REMARK       I    between atoms: C_5  and  N_10 
ROOT
HETATM    1  C   UNL     1      64.116   8.259   5.531  1.00  0.00     0.108 A 
HETATM    2  C   UNL     1      65.402   7.753   5.587  1.00  0.00     0.125 A 
HETATM    3  S   UNL     1      62.978   7.034   5.974  1.00  0.00    -0.091 SA
HETATM    4  C   UNL     1      65.440   6.380   5.949  1.00  0.00     0.110 A 
HETATM    5  C   UNL     1      64.198   5.855   6.186  1.00  0.00     0.090 A 
HETATM    6  O   UNL     1      66.510   8.482   5.298  1.00  0.00    -0.345 OA
HETATM    7  O   UNL     1      66.559   5.624   6.023  1.00  0.00    -0.346 OA
HETATM    8  C   UNL     1      67.613   7.610   4.987  1.00  0.00     0.202 C 
HETATM    9  C   UNL     1      67.741   6.437   5.968  1.00  0.00     0.202 C 
ENDROOT
BRANCH   1  10
HETATM   10  C   UNL     1      63.598   9.565   5.142  1.00  0.00     0.261 C 
HETATM   11  O   UNL     1      63.903  10.618   5.697  1.00  0.00    -0.267 OA
HETATM   12  N   UNL     1      62.691   9.558   4.097  1.00  0.00    -0.361 N 
HETATM   13  C   UNL     1      61.981  10.755   3.713  1.00  0.00     0.149 C 
HETATM   14  H   UNL     1      62.529   8.720   3.605  1.00  0.00     0.162 HD
ENDBRANCH   1  10
TORSDOF 1
ENDMDL
MODEL 4
REMARK VINA RESULT:      -4.5      2.089      3.077
REMARK  1 active torsions:
REMARK  status: ('A' for Active; 'I' for Inactive)
REMARK    1  A    between atoms: C_1  and  C_5 
REMARK       I    between atoms: C_5  and  N_10 
ROOT
HETATM    1  C   UNL     1      63.450   9.137   4.703  1.00  0.00     0.108 A 
HETATM    2  C   UNL     1      62.880   8.654   3.540  1.00  0.00     0.125 A 
HETATM    3  S   UNL     1      62.853  10.726   5.038  1.00  0.00    -0.091 SA
HETATM    4  C   UNL     1      62.004   9.587   2.924  1.00  0.00     0.110 A 
HETATM    5  C   UNL     1      61.894  10.759   3.623  1.00  0.00     0.090 A 
HETATM    6  O   UNL     1      63.151   7.428   3.023  1.00  0.00    -0.345 OA
HETATM    7  O   UNL     1      61.360   9.395   1.749  1.00  0.00    -0.346 OA
HETATM    8  C   UNL     1      62.804   7.388   1.626  1.00  0.00     0.202 C 
HETATM    9  C   UNL     1      61.439   8.024   1.332  1.00  0.00     0.202 C 
ENDROOT
BRANCH   1  10
HETATM   10  C   UNL     1      64.443   8.575   5.610  1.00  0.00     0.261 C 
HETATM   11  O   UNL     1      65.531   9.096   5.845  1.00  0.00    -0.267 OA
HETATM   12  N   UNL     1      64.099   7.370   6.196  1.00  0.00    -0.361 N 
HETATM   13  C   UNL     1      65.048   6.625   6.989  1.00  0.00     0.149 C 
HETATM   14  H   UNL     1      63.190   7.015   6.070  1.00  0.00     0.162 HD
ENDBRANCH   1  10
TORSDOF 1
ENDMDL
MODEL 5
REMARK VINA RESULT:      -4.2      2.980      4.936
REMARK  1 active torsions:
REMARK  status: ('A' for Active; 'I' for Inactive)
REMARK    1  A    between atoms: C_1  and  C_5 
REMARK       I    between atoms: C_5  and  N_10 
ROOT
HETATM    1  C   UNL     1      61.891   7.752   3.428  1.00  0.00     0.108 A 
HETATM    2  C   UNL     1      62.132   8.967   4.042  1.00  0.00     0.125 A 
HETATM    3  S   UNL     1      63.044   6.578   3.964  1.00  0.00    -0.091 SA
HETATM    4  C   UNL     1      63.262   8.937   4.902  1.00  0.00     0.110 A 
HETATM    5  C   UNL     1      63.860   7.706   4.957  1.00  0.00     0.090 A 
HETATM    6  O   UNL     1      61.387  10.080   3.824  1.00  0.00    -0.345 OA
HETATM    7  O   UNL     1      63.754   9.999   5.581  1.00  0.00    -0.346 OA
HETATM    8  C   UNL     1      62.124  11.256   4.207  1.00  0.00     0.202 C 
HETATM    9  C   UNL     1      62.836  11.101   5.557  1.00  0.00     0.202 C 
ENDROOT
BRANCH   1  10
HETATM   10  C   UNL     1      60.910   7.339   2.432  1.00  0.00     0.261 C 
HETATM   11  O   UNL     1      61.143   6.537   1.530  1.00  0.00    -0.267 OA
HETATM   12  N   UNL     1      59.667   7.937   2.538  1.00  0.00    -0.361 N 
HETATM   13  C   UNL     1      58.653   7.742   1.528  1.00  0.00     0.149 C 
HETATM   14  H   UNL     1      59.470   8.504   3.317  1.00  0.00     0.162 HD
ENDBRANCH   1  10
TORSDOF 1
ENDMDL
MODEL 6
REMARK VINA RESULT:      -4.2      2.666      5.152
REMARK  1 active torsions:
REMARK  status: ('A' for Active; 'I' for Inactive)
REMARK    1  A    between atoms: C_1  and  C_5 
REMARK       I    between atoms: C_5  and  N_10 
ROOT
HETATM    1  C   UNL     1      63.888   6.294   5.952  1.00  0.00     0.108 A 
HETATM    2  C   UNL     1      64.890   6.223   6.902  1.00  0.00     0.125 A 
HETATM    3  S   UNL     1      63.260   4.714   5.633  1.00  0.00    -0.091 SA
HETATM    4  C   UNL     1      65.156   4.893   7.326  1.00  0.00     0.110 A 
HETATM    5  C   UNL     1      64.349   3.967   6.719  1.00  0.00     0.090 A 
HETATM    6  O   UNL     1      65.570   7.304   7.361  1.00  0.00    -0.345 OA
HETATM    7  O   UNL     1      66.121   4.532   8.202  1.00  0.00    -0.346 OA
HETATM    8  C   UNL     1      66.816   6.895   7.954  1.00  0.00     0.202 C 
HETATM    9  C   UNL     1      66.667   5.676   8.875  1.00  0.00     0.202 C 
ENDROOT
BRANCH   1  10
HETATM   10  C   UNL     1      63.342   7.413   5.192  1.00  0.00     0.261 C 
HETATM   11  O   UNL     1      62.912   7.318   4.044  1.00  0.00    -0.267 OA
HETATM   12  N   UNL     1      63.356   8.635   5.839  1.00  0.00    -0.361 N 
HETATM   13  C   UNL     1      62.993   9.851   5.151  1.00  0.00     0.149 C 
HETATM   14  H   UNL     1      63.617   8.676   6.788  1.00  0.00     0.162 HD
ENDBRANCH   1  10
TORSDOF 1
ENDMDL
MODEL 7
REMARK VINA RESULT:      -4.2      1.844      1.844
REMARK  1 active torsions:
REMARK  status: ('A' for Active; 'I' for Inactive)
REMARK    1  A    between atoms: C_1  and  C_5 
REMARK       I    between atoms: C_5  and  N_10 
ROOT
HETATM    1  C   UNL     1      63.645   6.794   5.612  1.00  0.00     0.108 A 
HETATM    2  C   UNL     1      63.194   8.024   5.171  1.00  0.00     0.125 A 
HETATM    3  S   UNL     1      62.604   5.539   5.031  1.00  0.00    -0.091 SA
HETATM    4  C   UNL     1      62.000   7.934   4.406  1.00  0.00     0.110 A 
HETATM    5  C   UNL     1      61.561   6.646   4.251  1.00  0.00     0.090 A 
HETATM    6  O   UNL     1      63.810   9.198   5.462  1.00  0.00    -0.345 OA
HETATM    7  O   UNL     1      61.316   8.986   3.902  1.00  0.00    -0.346 OA
HETATM    8  C   UNL     1      62.896  10.297   5.285  1.00  0.00     0.202 C 
HETATM    9  C   UNL     1      62.085  10.195   3.986  1.00  0.00     0.202 C 
ENDROOT
BRANCH   1  10
HETATM   10  C   UNL     1      64.761   6.413   6.469  1.00  0.00     0.261 C 
HETATM   11  O   UNL     1      64.958   5.268   6.871  1.00  0.00    -0.267 OA
HETATM   12  N   UNL     1      65.602   7.445   6.844  1.00  0.00    -0.361 N 
HETATM   13  C   UNL     1      66.652   7.241   7.815  1.00  0.00     0.149 C 
HETATM   14  H   UNL     1      65.484   8.335   6.440  1.00  0.00     0.162 HD
ENDBRANCH   1  10
TORSDOF 1
ENDMDL
MODEL 8
REMARK VINA RESULT:      -4.1      2.871      3.307
REMARK  1 active torsions:
REMARK  status: ('A' for Active; 'I' for Inactive)
REMARK    1  A    between atoms: C_1  and  C_5 
REMARK       I    between atoms: C_5  and  N_10 
ROOT
HETATM    1  C   UNL     1      63.252   7.878   5.090  1.00  0.00     0.108 A 
HETATM    2  C   UNL     1      62.141   7.165   5.500  1.00  0.00     0.125 A 
HETATM    3  S   UNL     1      63.028   8.443   3.470  1.00  0.00    -0.091 SA
HETATM    4  C   UNL     1      61.149   7.058   4.489  1.00  0.00     0.110 A 
HETATM    5  C   UNL     1      61.494   7.700   3.331  1.00  0.00     0.090 A 
HETATM    6  O   UNL     1      62.022   6.601   6.729  1.00  0.00    -0.345 OA
HETATM    7  O   UNL     1      59.990   6.368   4.604  1.00  0.00    -0.346 OA
HETATM    8  C   UNL     1      61.019   5.568   6.709  1.00  0.00     0.202 C 
HETATM    9  C   UNL     1      59.744   5.988   5.966  1.00  0.00     0.202 C 
ENDROOT
BRANCH   1  10
HETATM   10  C   UNL     1      64.520   8.173   5.747  1.00  0.00     0.261 C 
HETATM   11  O   UNL     1      65.162   9.205   5.566  1.00  0.00    -0.267 OA
HETATM   12  N   UNL     1      64.995   7.189   6.594  1.00  0.00    -0.361 N 
HETATM   13  C   UNL     1      66.309   7.279   7.185  1.00  0.00     0.149 C 
HETATM   14  H   UNL     1      64.425   6.412   6.798  1.00  0.00     0.162 HD
ENDBRANCH   1  10
TORSDOF 1
ENDMDL
MODEL 9
REMARK VINA RESULT:      -4.0      3.218      5.247
REMARK  1 active torsions:
REMARK  status: ('A' for Active; 'I' for Inactive)
REMARK    1  A    between atoms: C_1  and  C_5 
REMARK       I    between atoms: C_5  and  N_10 
ROOT
HETATM    1  C   UNL     1      65.111   7.142   6.131  1.00  0.00     0.108 A 
HETATM    2  C   UNL     1      64.646   5.861   6.360  1.00  0.00     0.125 A 
HETATM    3  S   UNL     1      66.579   7.405   7.008  1.00  0.00    -0.091 SA
HETATM    4  C   UNL     1      65.462   5.130   7.266  1.00  0.00     0.110 A 
HETATM    5  C   UNL     1      66.546   5.844   7.703  1.00  0.00     0.090 A 
HETATM    6  O   UNL     1      63.514   5.361   5.803  1.00  0.00    -0.345 OA
HETATM    7  O   UNL     1      65.207   3.877   7.707  1.00  0.00    -0.346 OA
HETATM    8  C   UNL     1      63.043   4.230   6.559  1.00  0.00     0.202 C 
HETATM    9  C   UNL     1      64.166   3.256   6.939  1.00  0.00     0.202 C 
ENDROOT
BRANCH   1  10
HETATM   10  C   UNL     1      64.573   8.251   5.353  1.00  0.00     0.261 C 
HETATM   11  O   UNL     1      64.807   9.434   5.591  1.00  0.00    -0.267 OA
HETATM   12  N   UNL     1      63.734   7.896   4.312  1.00  0.00    -0.361 N 
HETATM   13  C   UNL     1      63.007   8.893   3.561  1.00  0.00     0.149 C 
HETATM   14  H   UNL     1      63.630   6.945   4.079  1.00  0.00     0.162 HD
ENDBRANCH   1  10
TORSDOF 1
ENDMDL
