MODEL 1
REMARK VINA RESULT:      -4.3      0.000      0.000
REMARK  1 active torsions:
REMARK  status: ('A' for Active; 'I' for Inactive)
REMARK    1  A    between atoms: N_6  and  C_7 
ROOT
HETATM    1  C   UNL     1      63.512   8.571   5.193  1.00  0.00     0.164 C 
HETATM    2  O   UNL     1      64.834   8.856   4.703  1.00  0.00    -0.353 OA
HETATM    3  O   UNL     1      63.595   7.598   6.247  1.00  0.00    -0.353 OA
HETATM    4  C   UNL     1      62.895   9.851   5.768  1.00  0.00     0.070 C 
HETATM    5  C   UNL     1      62.659   8.024   4.047  1.00  0.00     0.070 C 
HETATM    6  C   UNL     1      61.819  10.358   3.541  1.00  0.00     0.183 C 
HETATM    7  C   UNL     1      62.676  10.909   4.688  1.00  0.00     0.038 C 
HETATM    8  C   UNL     1      62.422   9.074   2.958  1.00  0.00     0.038 C 
HETATM    9  C   UNL     1      64.968   7.208   6.293  1.00  0.00     0.197 C 
HETATM   10  C   UNL     1      65.704   8.394   5.734  1.00  0.00     0.197 C 
ENDROOT
BRANCH   6  11
HETATM   11  N   UNL     1      61.669  11.359   2.489  1.00  0.00    -0.075 N 
HETATM   12  H   UNL     1      60.893  11.980   2.718  1.00  0.00     0.274 HD
HETATM   13  H   UNL     1      61.482  10.895   1.600  1.00  0.00     0.274 HD
HETATM   14  H   UNL     1      62.528  11.904   2.413  1.00  0.00     0.274 HD
ENDBRANCH   6  11
TORSDOF 1
ENDMDL
MODEL 2
REMARK VINA RESULT:      -4.2      2.408      3.813
REMARK  1 active torsions:
REMARK  status: ('A' for Active; 'I' for Inactive)
REMARK    1  A    between atoms: N_6  and  C_7 
ROOT
HETATM    1  C   UNL     1      62.158   8.759   3.031  1.00  0.00     0.164 C 
HETATM    2  O   UNL     1      60.986   8.242   3.685  1.00  0.00    -0.353 OA
HETATM    3  O   UNL     1      62.268   8.178   1.722  1.00  0.00    -0.353 OA
HETATM    4  C   UNL     1      62.025  10.278   2.873  1.00  0.00     0.070 C 
HETATM    5  C   UNL     1      63.394   8.405   3.861  1.00  0.00     0.070 C 
HETATM    6  C   UNL     1      63.245  10.633   5.054  1.00  0.00     0.183 C 
HETATM    7  C   UNL     1      62.005  10.988   4.225  1.00  0.00     0.038 C 
HETATM    8  C   UNL     1      63.394   9.116   5.217  1.00  0.00     0.038 C 
HETATM    9  C   UNL     1      61.221   7.209   1.650  1.00  0.00     0.197 C 
HETATM   10  C   UNL     1      60.193   7.709   2.627  1.00  0.00     0.197 C 
ENDROOT
BRANCH   6  11
HETATM   11  N   UNL     1      63.181  11.271   6.366  1.00  0.00    -0.075 N 
HETATM   12  H   UNL     1      64.050  11.776   6.542  1.00  0.00     0.274 HD
HETATM   13  H   UNL     1      63.052  10.558   7.085  1.00  0.00     0.274 HD
HETATM   14  H   UNL     1      62.398  11.923   6.390  1.00  0.00     0.274 HD
ENDBRANCH   6  11
TORSDOF 1
ENDMDL
MODEL 3
REMARK VINA RESULT:      -4.1      1.307      2.369
REMARK  1 active torsions:
REMARK  status: ('A' for Active; 'I' for Inactive)
REMARK    1  A    between atoms: N_6  and  C_7 
ROOT
HETATM    1  C   UNL     1      64.545   8.341   5.100  1.00  0.00     0.164 C 
HETATM    2  O   UNL     1      64.022   7.617   6.227  1.00  0.00    -0.353 OA
HETATM    3  O   UNL     1      65.975   8.427   5.211  1.00  0.00    -0.353 OA
HETATM    4  C   UNL     1      64.207   7.586   3.809  1.00  0.00     0.070 C 
HETATM    5  C   UNL     1      63.941   9.747   5.081  1.00  0.00     0.070 C 
HETATM    6  C   UNL     1      62.098   8.948   3.539  1.00  0.00     0.183 C 
HETATM    7  C   UNL     1      62.701   7.537   3.559  1.00  0.00     0.038 C 
HETATM    8  C   UNL     1      62.432   9.717   4.823  1.00  0.00     0.038 C 
HETATM    9  C   UNL     1      66.289   7.859   6.483  1.00  0.00     0.197 C 
HETATM   10  C   UNL     1      65.147   6.920   6.757  1.00  0.00     0.197 C 
ENDROOT
BRANCH   6  11
HETATM   11  N   UNL     1      60.651   8.881   3.361  1.00  0.00    -0.075 N 
HETATM   12  H   UNL     1      60.416   8.070   2.789  1.00  0.00     0.274 HD
HETATM   13  H   UNL     1      60.326   9.730   2.897  1.00  0.00     0.274 HD
HETATM   14  H   UNL     1      60.199   8.797   4.271  1.00  0.00     0.274 HD
ENDBRANCH   6  11
TORSDOF 1
ENDMDL
MODEL 4
REMARK VINA RESULT:      -4.0      2.805      4.226
REMARK  1 active torsions:
REMARK  status: ('A' for Active; 'I' for Inactive)
REMARK    1  A    between atoms: N_6  and  C_7 
ROOT
HETATM    1  C   UNL     1      63.311   8.731   4.877  1.00  0.00     0.164 C 
HETATM    2  O   UNL     1      63.101   9.608   5.997  1.00  0.00    -0.353 OA
HETATM    3  O   UNL     1      62.798   9.349   3.685  1.00  0.00    -0.353 OA
HETATM    4  C   UNL     1      64.814   8.497   4.688  1.00  0.00     0.070 C 
HETATM    5  C   UNL     1      62.583   7.409   5.130  1.00  0.00     0.070 C 
HETATM    6  C   UNL     1      64.694   6.424   6.123  1.00  0.00     0.183 C 
HETATM    7  C   UNL     1      65.424   7.749   5.872  1.00  0.00     0.038 C 
HETATM    8  C   UNL     1      63.187   6.641   6.310  1.00  0.00     0.038 C 
HETATM    9  C   UNL     1      62.162  10.548   4.127  1.00  0.00     0.197 C 
HETATM   10  C   UNL     1      62.869  10.887   5.410  1.00  0.00     0.197 C 
ENDROOT
BRANCH   6  11
HETATM   11  N   UNL     1      65.248   5.750   7.294  1.00  0.00    -0.075 N 
HETATM   12  H   UNL     1      66.184   5.408   7.079  1.00  0.00     0.274 HD
HETATM   13  H   UNL     1      64.650   4.964   7.549  1.00  0.00     0.274 HD
HETATM   14  H   UNL     1      65.297   6.406   8.073  1.00  0.00     0.274 HD
ENDBRANCH   6  11
TORSDOF 1
ENDMDL
MODEL 5
REMARK VINA RESULT:      -3.9      3.076      4.793
REMARK  1 active torsions:
REMARK  status: ('A' for Active; 'I' for Inactive)
REMARK    1  A    between atoms: N_6  and  C_7 
ROOT
HETATM    1  C   UNL     1      64.674   7.632   5.227  1.00  0.00     0.164 C 
HETATM    2  O   UNL     1      63.931   8.671   5.888  1.00  0.00    -0.353 OA
HETATM    3  O   UNL     1      64.138   7.427   3.910  1.00  0.00    -0.353 OA
HETATM    4  C   UNL     1      66.139   8.062   5.089  1.00  0.00     0.070 C 
HETATM    5  C   UNL     1      64.562   6.340   6.040  1.00  0.00     0.070 C 
HETATM    6  C   UNL     1      66.706   6.907   7.260  1.00  0.00     0.183 C 
HETATM    7  C   UNL     1      66.819   8.204   6.449  1.00  0.00     0.038 C 
HETATM    8  C   UNL     1      65.246   6.461   7.404  1.00  0.00     0.038 C 
HETATM    9  C   UNL     1      62.984   8.265   3.839  1.00  0.00     0.197 C 
HETATM   10  C   UNL     1      63.263   9.358   4.833  1.00  0.00     0.197 C 
ENDROOT
BRANCH   6  11
HETATM   11  N   UNL     1      67.306   7.077   8.580  1.00  0.00    -0.075 N 
HETATM   12  H   UNL     1      68.179   6.551   8.628  1.00  0.00     0.274 HD
HETATM   13  H   UNL     1      66.663   6.734   9.294  1.00  0.00     0.274 HD
HETATM   14  H   UNL     1      67.497   8.066   8.742  1.00  0.00     0.274 HD
ENDBRANCH   6  11
TORSDOF 1
ENDMDL
MODEL 6
REMARK VINA RESULT:      -3.9      1.409      1.615
REMARK  1 active torsions:
REMARK  status: ('A' for Active; 'I' for Inactive)
REMARK    1  A    between atoms: N_6  and  C_7 
ROOT
HETATM    1  C   UNL     1      63.164   7.674   5.470  1.00  0.00     0.164 C 
HETATM    2  O   UNL     1      64.172   7.092   4.625  1.00  0.00    -0.353 OA
HETATM    3  O   UNL     1      63.528   7.483   6.847  1.00  0.00    -0.353 OA
HETATM    4  C   UNL     1      63.081   9.181   5.200  1.00  0.00     0.070 C 
HETATM    5  C   UNL     1      61.821   6.997   5.190  1.00  0.00     0.070 C 
HETATM    6  C   UNL     1      61.251   8.797   3.503  1.00  0.00     0.183 C 
HETATM    7  C   UNL     1      62.599   9.476   3.781  1.00  0.00     0.038 C 
HETATM    8  C   UNL     1      61.318   7.289   3.773  1.00  0.00     0.038 C 
HETATM    9  C   UNL     1      64.699   6.666   6.817  1.00  0.00     0.197 C 
HETATM   10  C   UNL     1      65.310   6.951   5.473  1.00  0.00     0.197 C 
ENDROOT
BRANCH   6  11
HETATM   11  N   UNL     1      60.834   9.037   2.125  1.00  0.00    -0.075 N 
HETATM   12  H   UNL     1      59.915   8.624   1.971  1.00  0.00     0.274 HD
HETATM   13  H   UNL     1      61.508   8.615   1.486  1.00  0.00     0.274 HD
HETATM   14  H   UNL     1      60.788  10.042   1.953  1.00  0.00     0.274 HD
ENDBRANCH   6  11
TORSDOF 1
ENDMDL
MODEL 7
REMARK VINA RESULT:      -3.8      3.624      5.430
REMARK  1 active torsions:
REMARK  status: ('A' for Active; 'I' for Inactive)
REMARK    1  A    between atoms: N_6  and  C_7 
ROOT
HETATM    1  C   UNL     1      65.697   7.603   5.712  1.00  0.00     0.164 C 
HETATM    2  O   UNL     1      64.569   6.884   5.184  1.00  0.00    -0.353 OA
HETATM    3  O   UNL     1      65.389   9.006   5.757  1.00  0.00    -0.353 OA
HETATM    4  C   UNL     1      65.981   7.127   7.141  1.00  0.00     0.070 C 
HETATM    5  C   UNL     1      66.910   7.367   4.810  1.00  0.00     0.070 C 
HETATM    6  C   UNL     1      67.635   5.430   6.270  1.00  0.00     0.183 C 
HETATM    7  C   UNL     1      66.418   5.663   7.174  1.00  0.00     0.038 C 
HETATM    8  C   UNL     1      67.367   5.905   4.837  1.00  0.00     0.038 C 
HETATM    9  C   UNL     1      64.113   9.132   5.129  1.00  0.00     0.197 C 
HETATM   10  C   UNL     1      63.473   7.786   5.327  1.00  0.00     0.197 C 
ENDROOT
BRANCH   6  11
HETATM   11  N   UNL     1      68.002   4.017   6.265  1.00  0.00    -0.075 N 
HETATM   12  H   UNL     1      68.480   3.793   5.392  1.00  0.00     0.274 HD
HETATM   13  H   UNL     1      67.161   3.446   6.347  1.00  0.00     0.274 HD
HETATM   14  H   UNL     1      68.622   3.822   7.051  1.00  0.00     0.274 HD
ENDBRANCH   6  11
TORSDOF 1
ENDMDL
MODEL 8
REMARK VINA RESULT:      -3.7      2.215      3.052
REMARK  1 active torsions:
REMARK  status: ('A' for Active; 'I' for Inactive)
REMARK    1  A    between atoms: N_6  and  C_7 
ROOT
HETATM    1  C   UNL     1      62.494   8.331   3.479  1.00  0.00     0.164 C 
HETATM    2  O   UNL     1      62.207   9.623   4.039  1.00  0.00    -0.353 OA
HETATM    3  O   UNL     1      63.719   7.830   4.040  1.00  0.00    -0.353 OA
HETATM    4  C   UNL     1      61.367   7.357   3.839  1.00  0.00     0.070 C 
HETATM    5  C   UNL     1      62.635   8.461   1.960  1.00  0.00     0.070 C 
HETATM    6  C   UNL     1      60.185   7.889   1.673  1.00  0.00     0.183 C 
HETATM    7  C   UNL     1      60.042   7.760   3.195  1.00  0.00     0.038 C 
HETATM    8  C   UNL     1      61.313   8.857   1.296  1.00  0.00     0.038 C 
HETATM    9  C   UNL     1      64.228   8.895   4.844  1.00  0.00     0.197 C 
HETATM   10  C   UNL     1      63.006   9.687   5.218  1.00  0.00     0.197 C 
ENDROOT
BRANCH   6  11
HETATM   11  N   UNL     1      58.928   8.334   1.078  1.00  0.00    -0.075 N 
HETATM   12  H   UNL     1      58.912   9.353   1.040  1.00  0.00     0.274 HD
HETATM   13  H   UNL     1      58.147   8.003   1.645  1.00  0.00     0.274 HD
HETATM   14  H   UNL     1      58.846   7.957   0.134  1.00  0.00     0.274 HD
ENDBRANCH   6  11
TORSDOF 1
ENDMDL
MODEL 9
REMARK VINA RESULT:      -3.7      2.875      4.301
REMARK  1 active torsions:
REMARK  status: ('A' for Active; 'I' for Inactive)
REMARK    1  A    between atoms: N_6  and  C_7 
ROOT
HETATM    1  C   UNL     1      62.206   9.353   3.751  1.00  0.00     0.164 C 
HETATM    2  O   UNL     1      62.671   9.244   2.395  1.00  0.00    -0.353 OA
HETATM    3  O   UNL     1      61.569  10.629   3.934  1.00  0.00    -0.353 OA
HETATM    4  C   UNL     1      61.171   8.256   4.025  1.00  0.00     0.070 C 
HETATM    5  C   UNL     1      63.397   9.227   4.703  1.00  0.00     0.070 C 
HETATM    6  C   UNL     1      62.984   6.737   4.907  1.00  0.00     0.183 C 
HETATM    7  C   UNL     1      61.791   6.862   3.951  1.00  0.00     0.038 C 
HETATM    8  C   UNL     1      64.026   7.832   4.648  1.00  0.00     0.038 C 
HETATM    9  C   UNL     1      61.774  11.332   2.709  1.00  0.00     0.197 C 
HETATM   10  C   UNL     1      61.942  10.243   1.685  1.00  0.00     0.197 C 
ENDROOT
BRANCH   6  11
HETATM   11  N   UNL     1      63.604   5.421   4.781  1.00  0.00    -0.075 N 
HETATM   12  H   UNL     1      62.981   4.800   4.264  1.00  0.00     0.274 HD
HETATM   13  H   UNL     1      63.775   5.035   5.709  1.00  0.00     0.274 HD
HETATM   14  H   UNL     1      64.488   5.508   4.281  1.00  0.00     0.274 HD
ENDBRANCH   6  11
TORSDOF 1
ENDMDL
