MODEL 1
REMARK VINA RESULT:      -4.4      0.000      0.000
REMARK  1 active torsions:
REMARK  status: ('A' for Active; 'I' for Inactive)
REMARK    1  A    between atoms: C_1  and  C_7 
REMARK       I    between atoms: C_7  and  N_9 
ROOT
HETATM    1  C   UNL     1      64.682   8.395   5.251  1.00  0.00     0.117 A 
HETATM    2  N   UNL     1      63.963   9.527   5.411  1.00  0.00    -0.294 N 
ATOM      3  HN  UNL     1      64.053  10.228   6.148  1.00  0.00     0.187 HD
HETATM    4  N   UNL     1      63.098   9.521   4.371  1.00  0.00    -0.301 N 
HETATM    5  C   UNL     1      64.255   7.689   4.098  1.00  0.00     0.063 A 
HETATM    6  C   UNL     1      63.232   8.433   3.547  1.00  0.00     0.026 A 
HETATM    7  C   UNL     1      62.154  10.605   4.224  1.00  0.00     0.177 C 
HETATM    8  C   UNL     1      62.417   8.174   2.335  1.00  0.00     0.070 C 
ENDROOT
BRANCH   1   9
HETATM    9  C   UNL     1      65.759   7.984   6.173  1.00  0.00     0.269 C 
HETATM   10  O   UNL     1      66.916   8.380   6.048  1.00  0.00    -0.266 OA
HETATM   11  N   UNL     1      65.355   7.126   7.173  1.00  0.00    -0.360 N 
HETATM   12  C   UNL     1      66.246   6.604   8.177  1.00  0.00     0.149 C 
HETATM   13  H   UNL     1      64.408   6.858   7.203  1.00  0.00     0.162 HD
ENDBRANCH   1   9
TORSDOF 1
ENDMDL
MODEL 2
REMARK VINA RESULT:      -4.4      1.864      2.077
REMARK  1 active torsions:
REMARK  status: ('A' for Active; 'I' for Inactive)
REMARK    1  A    between atoms: C_1  and  C_7 
REMARK       I    between atoms: C_7  and  N_9 
ROOT
HETATM    1  C   UNL     1      62.938   8.583   4.679  1.00  0.00     0.117 A 
HETATM    2  N   UNL     1      62.564   9.880   4.626  1.00  0.00    -0.294 N 
ATOM      3  HN  UNL     1      62.518  10.551   5.394  1.00  0.00     0.187 HD
HETATM    4  N   UNL     1      62.266  10.086   3.322  1.00  0.00    -0.301 N 
HETATM    5  C   UNL     1      62.871   7.989   3.394  1.00  0.00     0.063 A 
HETATM    6  C   UNL     1      62.434   8.976   2.535  1.00  0.00     0.026 A 
HETATM    7  C   UNL     1      61.817  11.391   2.893  1.00  0.00     0.177 C 
HETATM    8  C   UNL     1      62.183   8.920   1.074  1.00  0.00     0.070 C 
ENDROOT
BRANCH   1   9
HETATM    9  C   UNL     1      63.354   7.912   5.927  1.00  0.00     0.269 C 
HETATM   10  O   UNL     1      62.578   7.725   6.861  1.00  0.00    -0.266 OA
HETATM   11  N   UNL     1      64.676   7.521   5.948  1.00  0.00    -0.360 N 
HETATM   12  C   UNL     1      65.286   6.851   7.068  1.00  0.00     0.149 C 
HETATM   13  H   UNL     1      65.230   7.708   5.157  1.00  0.00     0.162 HD
ENDBRANCH   1   9
TORSDOF 1
ENDMDL
MODEL 3
REMARK VINA RESULT:      -4.1      1.421      1.981
REMARK  1 active torsions:
REMARK  status: ('A' for Active; 'I' for Inactive)
REMARK    1  A    between atoms: C_1  and  C_7 
REMARK       I    between atoms: C_7  and  N_9 
ROOT
HETATM    1  C   UNL     1      64.740   8.261   4.955  1.00  0.00     0.117 A 
HETATM    2  N   UNL     1      64.437   7.482   3.894  1.00  0.00    -0.294 N 
ATOM      3  HN  UNL     1      64.925   6.646   3.570  1.00  0.00     0.187 HD
HETATM    4  N   UNL     1      63.337   8.062   3.360  1.00  0.00    -0.301 N 
HETATM    5  C   UNL     1      63.815   9.328   5.074  1.00  0.00     0.063 A 
HETATM    6  C   UNL     1      62.920   9.181   4.035  1.00  0.00     0.026 A 
HETATM    7  C   UNL     1      62.728   7.484   2.184  1.00  0.00     0.177 C 
HETATM    8  C   UNL     1      61.744  10.009   3.670  1.00  0.00     0.070 C 
ENDROOT
BRANCH   1   9
HETATM    9  C   UNL     1      65.889   8.002   5.846  1.00  0.00     0.269 C 
HETATM   10  O   UNL     1      66.347   8.865   6.592  1.00  0.00    -0.266 OA
HETATM   11  N   UNL     1      66.393   6.722   5.766  1.00  0.00    -0.360 N 
HETATM   12  C   UNL     1      67.511   6.261   6.547  1.00  0.00     0.149 C 
HETATM   13  H   UNL     1      65.967   6.091   5.142  1.00  0.00     0.162 HD
ENDBRANCH   1   9
TORSDOF 1
ENDMDL
MODEL 4
REMARK VINA RESULT:      -4.1      1.757      4.472
REMARK  1 active torsions:
REMARK  status: ('A' for Active; 'I' for Inactive)
REMARK    1  A    between atoms: C_1  and  C_7 
REMARK       I    between atoms: C_7  and  N_9 
ROOT
HETATM    1  C   UNL     1      64.824   8.051   5.510  1.00  0.00     0.117 A 
HETATM    2  N   UNL     1      64.661   7.311   6.628  1.00  0.00    -0.294 N 
ATOM      3  HN  UNL     1      64.005   7.468   7.394  1.00  0.00     0.187 HD
HETATM    4  N   UNL     1      65.568   6.314   6.501  1.00  0.00    -0.301 N 
HETATM    5  C   UNL     1      65.838   7.500   4.687  1.00  0.00     0.063 A 
HETATM    6  C   UNL     1      66.305   6.382   5.346  1.00  0.00     0.026 A 
HETATM    7  C   UNL     1      65.677   5.315   7.539  1.00  0.00     0.177 C 
HETATM    8  C   UNL     1      67.363   5.419   4.952  1.00  0.00     0.070 C 
ENDROOT
BRANCH   1   9
HETATM    9  C   UNL     1      64.032   9.263   5.221  1.00  0.00     0.269 C 
HETATM   10  O   UNL     1      64.253  10.338   5.775  1.00  0.00    -0.266 OA
HETATM   11  N   UNL     1      63.035   9.081   4.287  1.00  0.00    -0.360 N 
HETATM   12  C   UNL     1      62.147  10.132   3.861  1.00  0.00     0.149 C 
HETATM   13  H   UNL     1      62.926   8.187   3.890  1.00  0.00     0.162 HD
ENDBRANCH   1   9
TORSDOF 1
ENDMDL
MODEL 5
REMARK VINA RESULT:      -3.9      1.937      4.680
REMARK  1 active torsions:
REMARK  status: ('A' for Active; 'I' for Inactive)
REMARK    1  A    between atoms: C_1  and  C_7 
REMARK       I    between atoms: C_7  and  N_9 
ROOT
HETATM    1  C   UNL     1      64.235   7.828   5.501  1.00  0.00     0.117 A 
HETATM    2  N   UNL     1      64.341   7.355   6.762  1.00  0.00    -0.294 N 
ATOM      3  HN  UNL     1      63.600   7.244   7.454  1.00  0.00     0.187 HD
HETATM    4  N   UNL     1      65.656   7.062   6.897  1.00  0.00    -0.301 N 
HETATM    5  C   UNL     1      65.497   7.821   4.855  1.00  0.00     0.063 A 
HETATM    6  C   UNL     1      66.399   7.325   5.774  1.00  0.00     0.026 A 
HETATM    7  C   UNL     1      66.140   6.526   8.148  1.00  0.00     0.177 C 
HETATM    8  C   UNL     1      67.859   7.097   5.644  1.00  0.00     0.070 C 
ENDROOT
BRANCH   1   9
HETATM    9  C   UNL     1      62.959   8.279   4.912  1.00  0.00     0.269 C 
HETATM   10  O   UNL     1      61.964   7.560   4.875  1.00  0.00    -0.266 OA
HETATM   11  N   UNL     1      62.987   9.564   4.413  1.00  0.00    -0.360 N 
HETATM   12  C   UNL     1      61.851  10.198   3.795  1.00  0.00     0.149 C 
HETATM   13  H   UNL     1      63.826  10.074   4.483  1.00  0.00     0.162 HD
ENDBRANCH   1   9
TORSDOF 1
ENDMDL
MODEL 6
REMARK VINA RESULT:      -3.7      2.129      2.458
REMARK  1 active torsions:
REMARK  status: ('A' for Active; 'I' for Inactive)
REMARK    1  A    between atoms: C_1  and  C_7 
REMARK       I    between atoms: C_7  and  N_9 
ROOT
HETATM    1  C   UNL     1      63.227   7.770   5.155  1.00  0.00     0.117 A 
HETATM    2  N   UNL     1      62.243   7.239   4.398  1.00  0.00    -0.294 N 
ATOM      3  HN  UNL     1      61.957   6.261   4.338  1.00  0.00     0.187 HD
HETATM    4  N   UNL     1      61.722   8.300   3.739  1.00  0.00    -0.301 N 
HETATM    5  C   UNL     1      63.309   9.172   4.960  1.00  0.00     0.063 A 
HETATM    6  C   UNL     1      62.329   9.492   4.042  1.00  0.00     0.026 A 
HETATM    7  C   UNL     1      60.626   8.097   2.819  1.00  0.00     0.177 C 
HETATM    8  C   UNL     1      61.959  10.809   3.468  1.00  0.00     0.070 C 
ENDROOT
BRANCH   1   9
HETATM    9  C   UNL     1      64.081   6.966   6.051  1.00  0.00     0.269 C 
HETATM   10  O   UNL     1      64.320   7.307   7.208  1.00  0.00    -0.266 OA
HETATM   11  N   UNL     1      64.581   5.816   5.480  1.00  0.00    -0.360 N 
HETATM   12  C   UNL     1      65.435   4.891   6.179  1.00  0.00     0.149 C 
HETATM   13  H   UNL     1      64.340   5.617   4.547  1.00  0.00     0.162 HD
ENDBRANCH   1   9
TORSDOF 1
ENDMDL
MODEL 7
REMARK VINA RESULT:      -3.5      2.136      2.223
REMARK  1 active torsions:
REMARK  status: ('A' for Active; 'I' for Inactive)
REMARK    1  A    between atoms: C_1  and  C_7 
REMARK       I    between atoms: C_7  and  N_9 
ROOT
HETATM    1  C   UNL     1      64.251   6.782   6.451  1.00  0.00     0.117 A 
HETATM    2  N   UNL     1      64.297   8.078   6.074  1.00  0.00    -0.294 N 
ATOM      3  HN  UNL     1      65.019   8.767   6.284  1.00  0.00     0.187 HD
HETATM    4  N   UNL     1      63.164   8.254   5.355  1.00  0.00    -0.301 N 
HETATM    5  C   UNL     1      63.081   6.156   5.954  1.00  0.00     0.063 A 
HETATM    6  C   UNL     1      62.394   7.124   5.251  1.00  0.00     0.026 A 
HETATM    7  C   UNL     1      62.877   9.551   4.786  1.00  0.00     0.177 C 
HETATM    8  C   UNL     1      61.106   7.032   4.520  1.00  0.00     0.070 C 
ENDROOT
BRANCH   1   9
HETATM    9  C   UNL     1      65.300   6.141   7.269  1.00  0.00     0.269 C 
HETATM   10  O   UNL     1      65.500   4.928   7.246  1.00  0.00    -0.266 OA
HETATM   11  N   UNL     1      66.024   7.015   8.051  1.00  0.00    -0.360 N 
HETATM   12  C   UNL     1      67.092   6.598   8.924  1.00  0.00     0.149 C 
HETATM   13  H   UNL     1      65.801   7.972   8.010  1.00  0.00     0.162 HD
ENDBRANCH   1   9
TORSDOF 1
ENDMDL
MODEL 8
REMARK VINA RESULT:      -3.5      1.731      2.128
REMARK  1 active torsions:
REMARK  status: ('A' for Active; 'I' for Inactive)
REMARK    1  A    between atoms: C_1  and  C_7 
REMARK       I    between atoms: C_7  and  N_9 
ROOT
HETATM    1  C   UNL     1      63.138   8.220   4.577  1.00  0.00     0.117 A 
HETATM    2  N   UNL     1      63.129   8.960   3.447  1.00  0.00    -0.294 N 
ATOM      3  HN  UNL     1      63.872   9.559   3.084  1.00  0.00     0.187 HD
HETATM    4  N   UNL     1      61.911   8.726   2.907  1.00  0.00    -0.301 N 
HETATM    5  C   UNL     1      61.913   7.522   4.729  1.00  0.00     0.063 A 
HETATM    6  C   UNL     1      61.136   7.865   3.642  1.00  0.00     0.026 A 
HETATM    7  C   UNL     1      61.547   9.372   1.667  1.00  0.00     0.177 C 
HETATM    8  C   UNL     1      59.763   7.433   3.282  1.00  0.00     0.070 C 
ENDROOT
BRANCH   1   9
HETATM    9  C   UNL     1      64.288   8.170   5.502  1.00  0.00     0.269 C 
HETATM   10  O   UNL     1      65.066   9.113   5.631  1.00  0.00    -0.266 OA
HETATM   11  N   UNL     1      64.408   6.986   6.196  1.00  0.00    -0.360 N 
HETATM   12  C   UNL     1      65.458   6.728   7.147  1.00  0.00     0.149 C 
HETATM   13  H   UNL     1      63.740   6.280   6.034  1.00  0.00     0.162 HD
ENDBRANCH   1   9
TORSDOF 1
ENDMDL
MODEL 9
REMARK VINA RESULT:      -3.5      2.329      5.199
REMARK  1 active torsions:
REMARK  status: ('A' for Active; 'I' for Inactive)
REMARK    1  A    between atoms: C_1  and  C_7 
REMARK       I    between atoms: C_7  and  N_9 
ROOT
HETATM    1  C   UNL     1      64.848   6.752   6.459  1.00  0.00     0.117 A 
HETATM    2  N   UNL     1      64.901   5.556   5.833  1.00  0.00    -0.294 N 
ATOM      3  HN  UNL     1      64.218   5.155   5.190  1.00  0.00     0.187 HD
HETATM    4  N   UNL     1      66.067   5.013   6.254  1.00  0.00    -0.301 N 
HETATM    5  C   UNL     1      65.995   6.945   7.270  1.00  0.00     0.063 A 
HETATM    6  C   UNL     1      66.766   5.810   7.123  1.00  0.00     0.026 A 
HETATM    7  C   UNL     1      66.455   3.705   5.778  1.00  0.00     0.177 C 
HETATM    8  C   UNL     1      68.072   5.464   7.736  1.00  0.00     0.070 C 
ENDROOT
BRANCH   1   9
HETATM    9  C   UNL     1      63.730   7.702   6.294  1.00  0.00     0.269 C 
HETATM   10  O   UNL     1      62.654   7.554   6.869  1.00  0.00    -0.266 OA
HETATM   11  N   UNL     1      64.000   8.755   5.447  1.00  0.00    -0.360 N 
HETATM   12  C   UNL     1      63.048   9.794   5.147  1.00  0.00     0.149 C 
HETATM   13  H   UNL     1      64.889   8.800   5.027  1.00  0.00     0.162 HD
ENDBRANCH   1   9
TORSDOF 1
ENDMDL
