MODEL 1
REMARK VINA RESULT:      -5.0      0.000      0.000
REMARK  2 active torsions:
REMARK  status: ('A' for Active; 'I' for Inactive)
REMARK    1  A    between atoms: S_1  and  C_2 
REMARK    2  A    between atoms: S_1  and  N_3 
ROOT
HETATM    1  S   UNL     1      63.709   7.576   5.742  1.00  0.00     0.266 S 
HETATM    2  O   UNL     1      63.685   6.632   4.645  1.00  0.00    -0.204 OA
HETATM    3  O   UNL     1      62.935   7.343   6.943  1.00  0.00    -0.204 OA
ENDROOT
BRANCH   1   4
HETATM    4  C   UNL     1      63.065   9.101   5.057  1.00  0.00     0.184 A 
HETATM    5  O   UNL     1      63.105  10.282   5.774  1.00  0.00    -0.310 OA
HETATM    6  C   UNL     1      62.526  11.249   5.026  1.00  0.00     0.143 A 
HETATM    7  C   UNL     1      62.111  10.743   3.821  1.00  0.00     0.028 A 
HETATM    8  C   UNL     1      62.467   9.374   3.832  1.00  0.00     0.053 A 
ENDBRANCH   1   4
BRANCH   1   9
HETATM    9  N   UNL     1      65.328   7.837   6.213  1.00  0.00    -0.201 NA
HETATM   10  C   UNL     1      66.347   7.964   5.126  1.00  0.00     0.134 C 
HETATM   11  C   UNL     1      66.756   6.600   4.564  1.00  0.00     0.183 C 
HETATM   12  O   UNL     1      67.238   5.736   5.605  1.00  0.00    -0.389 OA
HETATM   13  C   UNL     1      66.239   5.544   6.619  1.00  0.00     0.183 C 
HETATM   14  C   UNL     1      65.827   6.880   7.251  1.00  0.00     0.134 C 
ENDBRANCH   1   9
TORSDOF 2
ENDMDL
MODEL 2
REMARK VINA RESULT:      -4.9      1.518      2.367
REMARK  2 active torsions:
REMARK  status: ('A' for Active; 'I' for Inactive)
REMARK    1  A    between atoms: S_1  and  C_2 
REMARK    2  A    between atoms: S_1  and  N_3 
ROOT
HETATM    1  S   UNL     1      63.784   8.703   5.333  1.00  0.00     0.266 S 
HETATM    2  O   UNL     1      62.724   8.228   6.196  1.00  0.00    -0.204 OA
HETATM    3  O   UNL     1      64.539   9.894   5.664  1.00  0.00    -0.204 OA
ENDROOT
BRANCH   1   4
HETATM    4  C   UNL     1      62.983   9.074   3.774  1.00  0.00     0.184 A 
HETATM    5  O   UNL     1      62.356  10.288   3.562  1.00  0.00    -0.310 OA
HETATM    6  C   UNL     1      61.819  10.273   2.319  1.00  0.00     0.143 A 
HETATM    7  C   UNL     1      62.084   9.082   1.694  1.00  0.00     0.028 A 
HETATM    8  C   UNL     1      62.840   8.320   2.615  1.00  0.00     0.053 A 
ENDBRANCH   1   4
BRANCH   1   9
HETATM    9  N   UNL     1      64.900   7.438   5.079  1.00  0.00    -0.201 NA
HETATM   10  C   UNL     1      64.785   6.235   5.960  1.00  0.00     0.134 C 
HETATM   11  C   UNL     1      65.407   6.474   7.338  1.00  0.00     0.183 C 
HETATM   12  O   UNL     1      66.778   6.882   7.222  1.00  0.00    -0.389 OA
HETATM   13  C   UNL     1      66.896   8.081   6.441  1.00  0.00     0.183 C 
HETATM   14  C   UNL     1      66.329   7.881   5.029  1.00  0.00     0.134 C 
ENDBRANCH   1   9
TORSDOF 2
ENDMDL
MODEL 3
REMARK VINA RESULT:      -4.7      2.007      5.103
REMARK  2 active torsions:
REMARK  status: ('A' for Active; 'I' for Inactive)
REMARK    1  A    between atoms: S_1  and  C_2 
REMARK    2  A    between atoms: S_1  and  N_3 
ROOT
HETATM    1  S   UNL     1      65.525   7.460   5.535  1.00  0.00     0.266 S 
HETATM    2  O   UNL     1      65.251   6.286   4.735  1.00  0.00    -0.204 OA
HETATM    3  O   UNL     1      66.393   8.510   5.045  1.00  0.00    -0.204 OA
ENDROOT
BRANCH   1   4
HETATM    4  C   UNL     1      66.326   6.840   7.012  1.00  0.00     0.184 A 
HETATM    5  O   UNL     1      65.719   6.935   8.250  1.00  0.00    -0.310 OA
HETATM    6  C   UNL     1      66.562   6.417   9.174  1.00  0.00     0.143 A 
HETATM    7  C   UNL     1      67.713   5.969   8.578  1.00  0.00     0.028 A 
HETATM    8  C   UNL     1      67.559   6.224   7.195  1.00  0.00     0.053 A 
ENDBRANCH   1   4
BRANCH   1   9
HETATM    9  N   UNL     1      64.046   8.181   5.985  1.00  0.00    -0.201 NA
HETATM   10  C   UNL     1      62.870   7.276   6.171  1.00  0.00     0.134 C 
HETATM   11  C   UNL     1      62.240   6.876   4.834  1.00  0.00     0.183 C 
HETATM   12  O   UNL     1      61.866   8.034   4.072  1.00  0.00    -0.389 OA
HETATM   13  C   UNL     1      63.003   8.875   3.821  1.00  0.00     0.183 C 
HETATM   14  C   UNL     1      63.645   9.345   5.133  1.00  0.00     0.134 C 
ENDBRANCH   1   9
TORSDOF 2
ENDMDL
MODEL 4
REMARK VINA RESULT:      -4.4      2.120      5.173
REMARK  2 active torsions:
REMARK  status: ('A' for Active; 'I' for Inactive)
REMARK    1  A    between atoms: S_1  and  C_2 
REMARK    2  A    between atoms: S_1  and  N_3 
ROOT
HETATM    1  S   UNL     1      66.354   7.723   5.679  1.00  0.00     0.266 S 
HETATM    2  O   UNL     1      67.471   7.793   4.762  1.00  0.00    -0.204 OA
HETATM    3  O   UNL     1      65.748   8.926   6.210  1.00  0.00    -0.204 OA
ENDROOT
BRANCH   1   4
HETATM    4  C   UNL     1      66.981   6.843   7.108  1.00  0.00     0.184 A 
HETATM    5  O   UNL     1      67.781   5.724   6.966  1.00  0.00    -0.310 OA
HETATM    6  C   UNL     1      68.075   5.257   8.202  1.00  0.00     0.143 A 
HETATM    7  C   UNL     1      67.499   6.046   9.164  1.00  0.00     0.028 A 
HETATM    8  C   UNL     1      66.812   7.069   8.469  1.00  0.00     0.053 A 
ENDBRANCH   1   4
BRANCH   1   9
HETATM    9  N   UNL     1      65.114   6.790   4.971  1.00  0.00    -0.201 NA
HETATM   10  C   UNL     1      64.418   7.365   3.778  1.00  0.00     0.134 C 
HETATM   11  C   UNL     1      63.372   8.410   4.175  1.00  0.00     0.183 C 
HETATM   12  O   UNL     1      62.417   7.861   5.096  1.00  0.00    -0.389 OA
HETATM   13  C   UNL     1      63.066   7.374   6.282  1.00  0.00     0.183 C 
HETATM   14  C   UNL     1      64.093   6.286   5.944  1.00  0.00     0.134 C 
ENDBRANCH   1   9
TORSDOF 2
ENDMDL
MODEL 5
REMARK VINA RESULT:      -4.3      1.874      5.082
REMARK  2 active torsions:
REMARK  status: ('A' for Active; 'I' for Inactive)
REMARK    1  A    between atoms: S_1  and  C_2 
REMARK    2  A    between atoms: S_1  and  N_3 
ROOT
HETATM    1  S   UNL     1      64.426   6.498   6.330  1.00  0.00     0.266 S 
HETATM    2  O   UNL     1      63.505   7.320   7.086  1.00  0.00    -0.204 OA
HETATM    3  O   UNL     1      64.024   5.204   5.819  1.00  0.00    -0.204 OA
ENDROOT
BRANCH   1   4
HETATM    4  C   UNL     1      65.777   6.159   7.456  1.00  0.00     0.184 A 
HETATM    5  O   UNL     1      66.031   4.876   7.905  1.00  0.00    -0.310 OA
HETATM    6  C   UNL     1      67.080   4.927   8.758  1.00  0.00     0.143 A 
HETATM    7  C   UNL     1      67.539   6.214   8.879  1.00  0.00     0.028 A 
HETATM    8  C   UNL     1      66.718   7.000   8.037  1.00  0.00     0.053 A 
ENDBRANCH   1   4
BRANCH   1   9
HETATM    9  N   UNL     1      65.031   7.406   5.018  1.00  0.00    -0.201 NA
HETATM   10  C   UNL     1      64.643   8.848   4.946  1.00  0.00     0.134 C 
HETATM   11  C   UNL     1      63.229   9.033   4.390  1.00  0.00     0.183 C 
HETATM   12  O   UNL     1      63.095   8.413   3.102  1.00  0.00    -0.389 OA
HETATM   13  C   UNL     1      63.390   7.009   3.173  1.00  0.00     0.183 C 
HETATM   14  C   UNL     1      64.818   6.768   3.680  1.00  0.00     0.134 C 
ENDBRANCH   1   9
TORSDOF 2
ENDMDL
MODEL 6
REMARK VINA RESULT:      -4.3      2.104      4.827
REMARK  2 active torsions:
REMARK  status: ('A' for Active; 'I' for Inactive)
REMARK    1  A    between atoms: S_1  and  C_2 
REMARK    2  A    between atoms: S_1  and  N_3 
ROOT
HETATM    1  S   UNL     1      63.593   7.856   5.765  1.00  0.00     0.266 S 
HETATM    2  O   UNL     1      63.863   9.210   5.328  1.00  0.00    -0.204 OA
HETATM    3  O   UNL     1      62.675   7.593   6.854  1.00  0.00    -0.204 OA
ENDROOT
BRANCH   1   4
HETATM    4  C   UNL     1      65.174   7.224   6.321  1.00  0.00     0.184 A 
HETATM    5  O   UNL     1      65.417   6.979   7.659  1.00  0.00    -0.310 OA
HETATM    6  C   UNL     1      66.692   6.540   7.783  1.00  0.00     0.143 A 
HETATM    7  C   UNL     1      67.300   6.476   6.556  1.00  0.00     0.028 A 
HETATM    8  C   UNL     1      66.328   6.898   5.618  1.00  0.00     0.053 A 
ENDBRANCH   1   4
BRANCH   1   9
HETATM    9  N   UNL     1      63.083   6.933   4.424  1.00  0.00    -0.201 NA
HETATM   10  C   UNL     1      63.515   7.394   3.069  1.00  0.00     0.134 C 
HETATM   11  C   UNL     1      62.660   8.559   2.562  1.00  0.00     0.183 C 
HETATM   12  O   UNL     1      61.267   8.211   2.552  1.00  0.00    -0.389 OA
HETATM   13  C   UNL     1      60.820   7.839   3.866  1.00  0.00     0.183 C 
HETATM   14  C   UNL     1      61.614   6.641   4.403  1.00  0.00     0.134 C 
ENDBRANCH   1   9
TORSDOF 2
ENDMDL
MODEL 7
REMARK VINA RESULT:      -3.9      9.503     10.490
REMARK  2 active torsions:
REMARK  status: ('A' for Active; 'I' for Inactive)
REMARK    1  A    between atoms: S_1  and  C_2 
REMARK    2  A    between atoms: S_1  and  N_3 
ROOT
HETATM    1  S   UNL     1      57.833   2.263  11.398  1.00  0.00     0.266 S 
HETATM    2  O   UNL     1      57.320   1.042  10.816  1.00  0.00    -0.204 OA
HETATM    3  O   UNL     1      56.953   3.198  12.067  1.00  0.00    -0.204 OA
ENDROOT
BRANCH   1   4
HETATM    4  C   UNL     1      58.529   3.176  10.023  1.00  0.00     0.184 A 
HETATM    5  O   UNL     1      58.396   4.550   9.934  1.00  0.00    -0.310 OA
HETATM    6  C   UNL     1      58.987   4.958   8.787  1.00  0.00     0.143 A 
HETATM    7  C   UNL     1      59.522   3.889   8.115  1.00  0.00     0.028 A 
HETATM    8  C   UNL     1      59.243   2.751   8.909  1.00  0.00     0.053 A 
ENDBRANCH   1   4
BRANCH   1   9
HETATM    9  N   UNL     1      59.093   1.874  12.480  1.00  0.00    -0.201 NA
HETATM   10  C   UNL     1      59.908   0.658  12.175  1.00  0.00     0.134 C 
HETATM   11  C   UNL     1      59.190  -0.630  12.586  1.00  0.00     0.183 C 
HETATM   12  O   UNL     1      58.834  -0.602  13.976  1.00  0.00    -0.389 OA
HETATM   13  C   UNL     1      57.986   0.521  14.268  1.00  0.00     0.183 C 
HETATM   14  C   UNL     1      58.679   1.845  13.919  1.00  0.00     0.134 C 
ENDBRANCH   1   9
TORSDOF 2
ENDMDL
MODEL 8
REMARK VINA RESULT:      -3.8      2.909      3.896
REMARK  2 active torsions:
REMARK  status: ('A' for Active; 'I' for Inactive)
REMARK    1  A    between atoms: S_1  and  C_2 
REMARK    2  A    between atoms: S_1  and  N_3 
ROOT
HETATM    1  S   UNL     1      62.861   7.236   5.408  1.00  0.00     0.266 S 
HETATM    2  O   UNL     1      62.542   7.184   6.818  1.00  0.00    -0.204 OA
HETATM    3  O   UNL     1      64.182   6.886   4.928  1.00  0.00    -0.204 OA
ENDROOT
BRANCH   1   4
HETATM    4  C   UNL     1      62.632   8.950   4.942  1.00  0.00     0.184 A 
HETATM    5  O   UNL     1      63.014   9.978   5.784  1.00  0.00    -0.310 OA
HETATM    6  C   UNL     1      62.695  11.151   5.189  1.00  0.00     0.143 A 
HETATM    7  C   UNL     1      62.119  10.929   3.964  1.00  0.00     0.028 A 
HETATM    8  C   UNL     1      62.091   9.524   3.797  1.00  0.00     0.053 A 
ENDBRANCH   1   4
BRANCH   1   9
HETATM    9  N   UNL     1      61.732   6.288   4.549  1.00  0.00    -0.201 NA
HETATM   10  C   UNL     1      60.336   6.234   5.082  1.00  0.00     0.134 C 
HETATM   11  C   UNL     1      60.212   5.268   6.264  1.00  0.00     0.183 C 
HETATM   12  O   UNL     1      60.662   3.953   5.906  1.00  0.00    -0.389 OA
HETATM   13  C   UNL     1      62.029   3.979   5.464  1.00  0.00     0.183 C 
HETATM   14  C   UNL     1      62.200   4.898   4.247  1.00  0.00     0.134 C 
ENDBRANCH   1   9
TORSDOF 2
ENDMDL
MODEL 9
REMARK VINA RESULT:      -3.8      4.746      6.098
REMARK  2 active torsions:
REMARK  status: ('A' for Active; 'I' for Inactive)
REMARK    1  A    between atoms: S_1  and  C_2 
REMARK    2  A    between atoms: S_1  and  N_3 
ROOT
HETATM    1  S   UNL     1      60.696   7.434   3.211  1.00  0.00     0.266 S 
HETATM    2  O   UNL     1      60.959   7.249   4.622  1.00  0.00    -0.204 OA
HETATM    3  O   UNL     1      61.322   6.585   2.218  1.00  0.00    -0.204 OA
ENDROOT
BRANCH   1   4
HETATM    4  C   UNL     1      61.275   9.089   2.845  1.00  0.00     0.184 A 
HETATM    5  O   UNL     1      61.398  10.042   3.839  1.00  0.00    -0.310 OA
HETATM    6  C   UNL     1      61.823  11.194   3.270  1.00  0.00     0.143 A 
HETATM    7  C   UNL     1      61.997  11.028   1.920  1.00  0.00     0.028 A 
HETATM    8  C   UNL     1      61.662   9.680   1.648  1.00  0.00     0.053 A 
ENDBRANCH   1   4
BRANCH   1   9
HETATM    9  N   UNL     1      59.012   7.380   2.949  1.00  0.00    -0.201 NA
HETATM   10  C   UNL     1      58.126   7.679   4.116  1.00  0.00     0.134 C 
HETATM   11  C   UNL     1      57.994   6.477   5.055  1.00  0.00     0.183 C 
HETATM   12  O   UNL     1      57.520   5.319   4.350  1.00  0.00    -0.389 OA
HETATM   13  C   UNL     1      58.405   4.976   3.271  1.00  0.00     0.183 C 
HETATM   14  C   UNL     1      58.535   6.133   2.271  1.00  0.00     0.134 C 
ENDBRANCH   1   9
TORSDOF 2
ENDMDL
