MODEL 1
REMARK VINA RESULT:      -5.6      0.000      0.000
REMARK  2 active torsions:
REMARK  status: ('A' for Active; 'I' for Inactive)
REMARK    1  A    between atoms: C_1  and  C_3 
REMARK    2  A    between atoms: C_2  and  C_4 
REMARK       I    between atoms: C_3  and  N_7 
ROOT
HETATM    1  C   UNL     1      62.486   8.687   4.748  1.00  0.00     0.073 A 
HETATM    2  C   UNL     1      61.703   8.138   3.742  1.00  0.00     0.175 A 
HETATM    3  C   UNL     1      62.674  10.055   4.389  1.00  0.00     0.052 A 
HETATM    4  O   UNL     1      61.373   9.113   2.832  1.00  0.00    -0.310 OA
HETATM    5  C   UNL     1      61.971  10.266   3.229  1.00  0.00     0.051 A 
HETATM    6  C   UNL     1      61.776  11.446   2.364  1.00  0.00     0.076 C 
ENDROOT
BRANCH   1   7
HETATM    7  C   UNL     1      63.068   7.959   5.865  1.00  0.00     0.256 C 
HETATM    8  N   UNL     1      64.265   7.274   5.646  1.00  0.00    -0.348 N 
HETATM    9  C   UNL     1      64.699   6.284   6.627  1.00  0.00     0.126 C 
HETATM   10  C   UNL     1      65.189   7.499   4.531  1.00  0.00     0.126 C 
HETATM   11  C   UNL     1      66.084   6.616   7.173  1.00  0.00     0.020 C 
HETATM   12  C   UNL     1      67.090   6.790   6.037  1.00  0.00     0.003 C 
HETATM   13  C   UNL     1      66.594   7.827   5.034  1.00  0.00     0.020 C 
HETATM   14  O   UNL     1      62.476   7.919   6.941  1.00  0.00    -0.267 OA
ENDBRANCH   1   7
BRANCH   2  15
HETATM   15  C   UNL     1      61.157   6.782   3.466  1.00  0.00     0.440 C 
HETATM   16  F   UNL     1      62.095   5.806   3.432  1.00  0.00    -0.164 F 
HETATM   17  F   UNL     1      60.265   6.409   4.423  1.00  0.00    -0.164 F 
HETATM   18  F   UNL     1      60.493   6.734   2.281  1.00  0.00    -0.164 F 
ENDBRANCH   2  15
TORSDOF 2
ENDMDL
MODEL 2
REMARK VINA RESULT:      -5.2      1.818      2.280
REMARK  2 active torsions:
REMARK  status: ('A' for Active; 'I' for Inactive)
REMARK    1  A    between atoms: C_1  and  C_3 
REMARK    2  A    between atoms: C_2  and  C_4 
REMARK       I    between atoms: C_3  and  N_7 
ROOT
HETATM    1  C   UNL     1      63.022   8.494   4.223  1.00  0.00     0.073 A 
HETATM    2  C   UNL     1      61.982   7.619   4.506  1.00  0.00     0.175 A 
HETATM    3  C   UNL     1      62.756   8.999   2.915  1.00  0.00     0.052 A 
HETATM    4  O   UNL     1      61.088   7.613   3.464  1.00  0.00    -0.310 OA
HETATM    5  C   UNL     1      61.569   8.444   2.504  1.00  0.00     0.051 A 
HETATM    6  C   UNL     1      60.773   8.559   1.266  1.00  0.00     0.076 C 
ENDROOT
BRANCH   1   7
HETATM    7  C   UNL     1      64.183   8.737   5.064  1.00  0.00     0.256 C 
HETATM    8  N   UNL     1      65.097   7.695   5.234  1.00  0.00    -0.348 N 
HETATM    9  C   UNL     1      66.080   7.788   6.310  1.00  0.00     0.126 C 
HETATM   10  C   UNL     1      65.215   6.511   4.377  1.00  0.00     0.126 C 
HETATM   11  C   UNL     1      67.503   7.691   5.769  1.00  0.00     0.020 C 
HETATM   12  C   UNL     1      67.680   6.430   4.926  1.00  0.00     0.003 C 
HETATM   13  C   UNL     1      66.631   6.371   3.820  1.00  0.00     0.020 C 
HETATM   14  O   UNL     1      64.303   9.816   5.641  1.00  0.00    -0.267 OA
ENDBRANCH   1   7
BRANCH   2  15
HETATM   15  C   UNL     1      61.641   6.742   5.659  1.00  0.00     0.440 C 
HETATM   16  F   UNL     1      60.326   6.431   5.746  1.00  0.00    -0.164 F 
HETATM   17  F   UNL     1      62.301   5.554   5.582  1.00  0.00    -0.164 F 
HETATM   18  F   UNL     1      61.995   7.302   6.845  1.00  0.00    -0.164 F 
ENDBRANCH   2  15
TORSDOF 2
ENDMDL
MODEL 3
REMARK VINA RESULT:      -5.1      2.536      2.943
REMARK  2 active torsions:
REMARK  status: ('A' for Active; 'I' for Inactive)
REMARK    1  A    between atoms: C_1  and  C_3 
REMARK    2  A    between atoms: C_2  and  C_4 
REMARK       I    between atoms: C_3  and  N_7 
ROOT
HETATM    1  C   UNL     1      63.415   7.358   3.710  1.00  0.00     0.073 A 
HETATM    2  C   UNL     1      63.119   8.700   3.906  1.00  0.00     0.175 A 
HETATM    3  C   UNL     1      63.055   7.077   2.358  1.00  0.00     0.052 A 
HETATM    4  O   UNL     1      62.651   9.245   2.736  1.00  0.00    -0.310 OA
HETATM    5  C   UNL     1      62.609   8.253   1.808  1.00  0.00     0.051 A 
HETATM    6  C   UNL     1      62.096   8.616   0.473  1.00  0.00     0.076 C 
ENDROOT
BRANCH   1   7
HETATM    7  C   UNL     1      63.890   6.433   4.728  1.00  0.00     0.256 C 
HETATM    8  N   UNL     1      65.263   6.188   4.798  1.00  0.00    -0.348 N 
HETATM    9  C   UNL     1      65.734   5.042   5.571  1.00  0.00     0.126 C 
HETATM   10  C   UNL     1      66.314   7.026   4.213  1.00  0.00     0.126 C 
HETATM   11  C   UNL     1      66.708   5.474   6.662  1.00  0.00     0.020 C 
HETATM   12  C   UNL     1      67.856   6.293   6.076  1.00  0.00     0.003 C 
HETATM   13  C   UNL     1      67.318   7.474   5.273  1.00  0.00     0.020 C 
HETATM   14  O   UNL     1      63.081   5.857   5.452  1.00  0.00    -0.267 OA
ENDBRANCH   1   7
BRANCH   2  15
HETATM   15  C   UNL     1      63.215   9.632   5.062  1.00  0.00     0.440 C 
HETATM   16  F   UNL     1      62.742  10.876   4.809  1.00  0.00    -0.164 F 
HETATM   17  F   UNL     1      62.501   9.170   6.125  1.00  0.00    -0.164 F 
HETATM   18  F   UNL     1      64.496   9.775   5.492  1.00  0.00    -0.164 F 
ENDBRANCH   2  15
TORSDOF 2
ENDMDL
MODEL 4
REMARK VINA RESULT:      -5.0      2.954      5.706
REMARK  2 active torsions:
REMARK  status: ('A' for Active; 'I' for Inactive)
REMARK    1  A    between atoms: C_1  and  C_3 
REMARK    2  A    between atoms: C_2  and  C_4 
REMARK       I    between atoms: C_3  and  N_7 
ROOT
HETATM    1  C   UNL     1      62.847   8.067   3.067  1.00  0.00     0.073 A 
HETATM    2  C   UNL     1      62.923   9.235   3.813  1.00  0.00     0.175 A 
HETATM    3  C   UNL     1      63.913   7.240   3.533  1.00  0.00     0.052 A 
HETATM    4  O   UNL     1      63.941   9.130   4.730  1.00  0.00    -0.310 OA
HETATM    5  C   UNL     1      64.537   7.924   4.547  1.00  0.00     0.051 A 
HETATM    6  C   UNL     1      65.693   7.617   5.413  1.00  0.00     0.076 C 
ENDROOT
BRANCH   1   7
HETATM    7  C   UNL     1      61.926   7.817   1.969  1.00  0.00     0.256 C 
HETATM    8  N   UNL     1      60.720   7.176   2.260  1.00  0.00    -0.348 N 
HETATM    9  C   UNL     1      59.933   6.625   1.161  1.00  0.00     0.126 C 
HETATM   10  C   UNL     1      60.114   7.054   3.589  1.00  0.00     0.126 C 
HETATM   11  C   UNL     1      58.527   7.216   1.136  1.00  0.00     0.020 C 
HETATM   12  C   UNL     1      57.840   7.044   2.489  1.00  0.00     0.003 C 
HETATM   13  C   UNL     1      58.699   7.628   3.606  1.00  0.00     0.020 C 
HETATM   14  O   UNL     1      62.249   8.120   0.822  1.00  0.00    -0.267 OA
ENDBRANCH   1   7
BRANCH   2  15
HETATM   15  C   UNL     1      62.156  10.509   3.839  1.00  0.00     0.440 C 
HETATM   16  F   UNL     1      62.243  11.229   2.695  1.00  0.00    -0.164 F 
HETATM   17  F   UNL     1      60.829  10.279   4.035  1.00  0.00    -0.164 F 
HETATM   18  F   UNL     1      62.559  11.323   4.850  1.00  0.00    -0.164 F 
ENDBRANCH   2  15
TORSDOF 2
ENDMDL
MODEL 5
REMARK VINA RESULT:      -5.0      1.929      4.907
REMARK  2 active torsions:
REMARK  status: ('A' for Active; 'I' for Inactive)
REMARK    1  A    between atoms: C_1  and  C_3 
REMARK    2  A    between atoms: C_2  and  C_4 
REMARK       I    between atoms: C_3  and  N_7 
ROOT
HETATM    1  C   UNL     1      64.216   7.190   4.953  1.00  0.00     0.073 A 
HETATM    2  C   UNL     1      63.551   6.541   5.985  1.00  0.00     0.175 A 
HETATM    3  C   UNL     1      65.500   7.531   5.476  1.00  0.00     0.052 A 
HETATM    4  O   UNL     1      64.382   6.433   7.073  1.00  0.00    -0.310 OA
HETATM    5  C   UNL     1      65.555   7.042   6.757  1.00  0.00     0.051 A 
HETATM    6  C   UNL     1      66.589   7.074   7.810  1.00  0.00     0.076 C 
ENDROOT
BRANCH   1   7
HETATM    7  C   UNL     1      63.650   7.530   3.658  1.00  0.00     0.256 C 
HETATM    8  N   UNL     1      62.675   8.529   3.613  1.00  0.00    -0.348 N 
HETATM    9  C   UNL     1      61.864   8.666   2.406  1.00  0.00     0.126 C 
HETATM   10  C   UNL     1      62.419   9.523   4.658  1.00  0.00     0.126 C 
HETATM   11  C   UNL     1      61.983  10.068   1.816  1.00  0.00     0.020 C 
HETATM   12  C   UNL     1      61.655  11.130   2.864  1.00  0.00     0.003 C 
HETATM   13  C   UNL     1      62.520  10.944   4.107  1.00  0.00     0.020 C 
HETATM   14  O   UNL     1      63.996   6.905   2.658  1.00  0.00    -0.267 OA
ENDBRANCH   1   7
BRANCH   2  15
HETATM   15  C   UNL     1      62.195   5.950   6.144  1.00  0.00     0.440 C 
HETATM   16  F   UNL     1      62.179   4.779   6.825  1.00  0.00    -0.164 F 
HETATM   17  F   UNL     1      61.371   6.790   6.827  1.00  0.00    -0.164 F 
HETATM   18  F   UNL     1      61.600   5.718   4.945  1.00  0.00    -0.164 F 
ENDBRANCH   2  15
TORSDOF 2
ENDMDL
MODEL 6
REMARK VINA RESULT:      -5.0      2.140      4.894
REMARK  2 active torsions:
REMARK  status: ('A' for Active; 'I' for Inactive)
REMARK    1  A    between atoms: C_1  and  C_3 
REMARK    2  A    between atoms: C_2  and  C_4 
REMARK       I    between atoms: C_3  and  N_7 
ROOT
HETATM    1  C   UNL     1      63.815   8.163   4.997  1.00  0.00     0.073 A 
HETATM    2  C   UNL     1      63.464   7.106   5.826  1.00  0.00     0.175 A 
HETATM    3  C   UNL     1      65.195   8.417   5.259  1.00  0.00     0.052 A 
HETATM    4  O   UNL     1      64.567   6.684   6.528  1.00  0.00    -0.310 OA
HETATM    5  C   UNL     1      65.606   7.489   6.184  1.00  0.00     0.051 A 
HETATM    6  C   UNL     1      66.894   7.232   6.856  1.00  0.00     0.076 C 
ENDROOT
BRANCH   1   7
HETATM    7  C   UNL     1      62.909   8.905   4.135  1.00  0.00     0.256 C 
HETATM    8  N   UNL     1      62.803   8.505   2.801  1.00  0.00    -0.348 N 
HETATM    9  C   UNL     1      62.170   9.409   1.844  1.00  0.00     0.126 C 
HETATM   10  C   UNL     1      63.215   7.207   2.261  1.00  0.00     0.126 C 
HETATM   11  C   UNL     1      60.982   8.743   1.157  1.00  0.00     0.020 C 
HETATM   12  C   UNL     1      61.392   7.416   0.522  1.00  0.00     0.003 C 
HETATM   13  C   UNL     1      62.054   6.508   1.555  1.00  0.00     0.020 C 
HETATM   14  O   UNL     1      62.312   9.884   4.577  1.00  0.00    -0.267 OA
ENDBRANCH   1   7
BRANCH   2  15
HETATM   15  C   UNL     1      62.205   6.357   6.086  1.00  0.00     0.440 C 
HETATM   16  F   UNL     1      61.349   6.990   6.923  1.00  0.00    -0.164 F 
HETATM   17  F   UNL     1      61.513   6.146   4.933  1.00  0.00    -0.164 F 
HETATM   18  F   UNL     1      62.446   5.130   6.619  1.00  0.00    -0.164 F 
ENDBRANCH   2  15
TORSDOF 2
ENDMDL
MODEL 7
REMARK VINA RESULT:      -4.9      3.486      4.726
REMARK  2 active torsions:
REMARK  status: ('A' for Active; 'I' for Inactive)
REMARK    1  A    between atoms: C_1  and  C_3 
REMARK    2  A    between atoms: C_2  and  C_4 
REMARK       I    between atoms: C_3  and  N_7 
ROOT
HETATM    1  C   UNL     1      64.481   7.613   4.631  1.00  0.00     0.073 A 
HETATM    2  C   UNL     1      65.299   8.320   5.501  1.00  0.00     0.175 A 
HETATM    3  C   UNL     1      63.358   8.458   4.383  1.00  0.00     0.052 A 
HETATM    4  O   UNL     1      64.753   9.557   5.744  1.00  0.00    -0.310 OA
HETATM    5  C   UNL     1      63.576   9.627   5.070  1.00  0.00     0.051 A 
HETATM    6  C   UNL     1      62.797  10.871   5.224  1.00  0.00     0.076 C 
ENDROOT
BRANCH   1   7
HETATM    7  C   UNL     1      64.701   6.249   4.175  1.00  0.00     0.256 C 
HETATM    8  N   UNL     1      64.384   5.209   5.050  1.00  0.00    -0.348 N 
HETATM    9  C   UNL     1      64.888   3.869   4.762  1.00  0.00     0.126 C 
HETATM   10  C   UNL     1      63.517   5.314   6.228  1.00  0.00     0.126 C 
HETATM   11  C   UNL     1      63.748   2.861   4.647  1.00  0.00     0.020 C 
HETATM   12  C   UNL     1      62.862   2.897   5.891  1.00  0.00     0.003 C 
HETATM   13  C   UNL     1      62.364   4.314   6.157  1.00  0.00     0.020 C 
HETATM   14  O   UNL     1      65.205   6.049   3.072  1.00  0.00    -0.267 OA
ENDBRANCH   1   7
BRANCH   2  15
HETATM   15  C   UNL     1      66.594   8.039   6.178  1.00  0.00     0.440 C 
HETATM   16  F   UNL     1      66.924   8.939   7.134  1.00  0.00    -0.164 F 
HETATM   17  F   UNL     1      66.570   6.827   6.798  1.00  0.00    -0.164 F 
HETATM   18  F   UNL     1      67.628   8.000   5.297  1.00  0.00    -0.164 F 
ENDBRANCH   2  15
TORSDOF 2
ENDMDL
MODEL 8
REMARK VINA RESULT:      -4.6      3.958      5.814
REMARK  2 active torsions:
REMARK  status: ('A' for Active; 'I' for Inactive)
REMARK    1  A    between atoms: C_1  and  C_3 
REMARK    2  A    between atoms: C_2  and  C_4 
REMARK       I    between atoms: C_3  and  N_7 
ROOT
HETATM    1  C   UNL     1      59.465   5.959   4.256  1.00  0.00     0.073 A 
HETATM    2  C   UNL     1      58.469   6.410   5.112  1.00  0.00     0.175 A 
HETATM    3  C   UNL     1      60.347   5.181   5.066  1.00  0.00     0.052 A 
HETATM    4  O   UNL     1      58.679   5.905   6.371  1.00  0.00    -0.310 OA
HETATM    5  C   UNL     1      59.821   5.170   6.335  1.00  0.00     0.051 A 
HETATM    6  C   UNL     1      60.258   4.560   7.606  1.00  0.00     0.076 C 
ENDROOT
BRANCH   1   7
HETATM    7  C   UNL     1      59.609   6.316   2.854  1.00  0.00     0.256 C 
HETATM    8  N   UNL     1      60.158   7.563   2.550  1.00  0.00    -0.348 N 
HETATM    9  C   UNL     1      60.017   8.082   1.193  1.00  0.00     0.126 C 
HETATM   10  C   UNL     1      60.941   8.400   3.464  1.00  0.00     0.126 C 
HETATM   11  C   UNL     1      61.377   8.382   0.571  1.00  0.00     0.020 C 
HETATM   12  C   UNL     1      62.194   9.309   1.468  1.00  0.00     0.003 C 
HETATM   13  C   UNL     1      62.310   8.732   2.875  1.00  0.00     0.020 C 
HETATM   14  O   UNL     1      59.200   5.549   1.985  1.00  0.00    -0.267 OA
ENDBRANCH   1   7
BRANCH   2  15
HETATM   15  C   UNL     1      57.266   7.271   4.951  1.00  0.00     0.440 C 
HETATM   16  F   UNL     1      56.577   7.476   6.098  1.00  0.00    -0.164 F 
HETATM   17  F   UNL     1      57.606   8.507   4.494  1.00  0.00    -0.164 F 
HETATM   18  F   UNL     1      56.390   6.755   4.049  1.00  0.00    -0.164 F 
ENDBRANCH   2  15
TORSDOF 2
ENDMDL
MODEL 9
REMARK VINA RESULT:      -4.6      4.135      6.930
REMARK  2 active torsions:
REMARK  status: ('A' for Active; 'I' for Inactive)
REMARK    1  A    between atoms: C_1  and  C_3 
REMARK    2  A    between atoms: C_2  and  C_4 
REMARK       I    between atoms: C_3  and  N_7 
ROOT
HETATM    1  C   UNL     1      66.902   5.681   6.398  1.00  0.00     0.073 A 
HETATM    2  C   UNL     1      67.164   5.513   7.751  1.00  0.00     0.175 A 
HETATM    3  C   UNL     1      67.226   4.433   5.785  1.00  0.00     0.052 A 
HETATM    4  O   UNL     1      67.576   4.224   7.986  1.00  0.00    -0.310 OA
HETATM    5  C   UNL     1      67.617   3.582   6.789  1.00  0.00     0.051 A 
HETATM    6  C   UNL     1      68.075   2.179   6.806  1.00  0.00     0.076 C 
ENDROOT
BRANCH   1   7
HETATM    7  C   UNL     1      66.490   6.920   5.758  1.00  0.00     0.256 C 
HETATM    8  N   UNL     1      65.163   7.029   5.339  1.00  0.00    -0.348 N 
HETATM    9  C   UNL     1      64.801   8.102   4.417  1.00  0.00     0.126 C 
HETATM   10  C   UNL     1      64.050   6.190   5.793  1.00  0.00     0.126 C 
HETATM   11  C   UNL     1      63.703   8.986   5.000  1.00  0.00     0.020 C 
HETATM   12  C   UNL     1      62.497   8.149   5.422  1.00  0.00     0.003 C 
HETATM   13  C   UNL     1      62.921   7.038   6.378  1.00  0.00     0.020 C 
HETATM   14  O   UNL     1      67.318   7.805   5.554  1.00  0.00    -0.267 OA
ENDBRANCH   1   7
BRANCH   2  15
HETATM   15  C   UNL     1      67.078   6.394   8.948  1.00  0.00     0.440 C 
HETATM   16  F   UNL     1      65.871   6.372   9.563  1.00  0.00    -0.164 F 
HETATM   17  F   UNL     1      67.985   6.025   9.894  1.00  0.00    -0.164 F 
HETATM   18  F   UNL     1      67.345   7.691   8.644  1.00  0.00    -0.164 F 
ENDBRANCH   2  15
TORSDOF 2
ENDMDL
