MODEL 1
REMARK VINA RESULT:      -5.0      0.000      0.000
REMARK  1 active torsions:
REMARK  status: ('A' for Active; 'I' for Inactive)
REMARK    1  A    between atoms: C_1  and  C_2 
REMARK       I    between atoms: C_2  and  N_3 
ROOT
HETATM    1  C   UNL     1      66.300   7.965   5.447  1.00  0.00     0.279 C 
HETATM    2  N   UNL     1      66.496   7.084   6.504  1.00  0.00    -0.346 N 
HETATM    3  O   UNL     1      67.212   8.168   4.640  1.00  0.00    -0.265 OA
HETATM    4  C   UNL     1      65.518   6.512   7.412  1.00  0.00     0.126 C 
HETATM    5  C   UNL     1      67.786   6.434   6.678  1.00  0.00     0.126 C 
HETATM    6  C   UNL     1      67.653   5.587   7.941  1.00  0.00     0.021 C 
HETATM    7  C   UNL     1      66.364   6.071   8.593  1.00  0.00     0.021 C 
ENDROOT
BRANCH   1   8
HETATM    8  C   UNL     1      65.026   8.634   5.297  1.00  0.00     0.167 A 
HETATM    9  O   UNL     1      64.787   9.832   5.900  1.00  0.00    -0.233 OA
HETATM   10  N   UNL     1      63.513  10.273   5.594  1.00  0.00    -0.272 N 
HETATM   11  C   UNL     1      63.012   9.351   4.771  1.00  0.00     0.117 A 
ATOM     12  HN  UNL     1      63.054  11.122   5.927  1.00  0.00     0.194 HD
HETATM   13  C   UNL     1      63.923   8.308   4.537  1.00  0.00     0.064 A 
ENDBRANCH   1   8
TORSDOF 1
ENDMDL
MODEL 2
REMARK VINA RESULT:      -4.8      2.604      5.803
REMARK  1 active torsions:
REMARK  status: ('A' for Active; 'I' for Inactive)
REMARK    1  A    between atoms: C_1  and  C_2 
REMARK       I    between atoms: C_2  and  N_3 
ROOT
HETATM    1  C   UNL     1      63.055   9.982   5.151  1.00  0.00     0.279 C 
HETATM    2  N   UNL     1      62.513  10.177   3.885  1.00  0.00    -0.346 N 
HETATM    3  O   UNL     1      63.044  10.904   5.972  1.00  0.00    -0.265 OA
HETATM    4  C   UNL     1      62.198   9.195   2.863  1.00  0.00     0.126 C 
HETATM    5  C   UNL     1      61.971  11.477   3.520  1.00  0.00     0.126 C 
HETATM    6  C   UNL     1      61.512  11.338   2.071  1.00  0.00     0.021 C 
HETATM    7  C   UNL     1      62.130  10.029   1.597  1.00  0.00     0.021 C 
ENDROOT
BRANCH   1   8
HETATM    8  C   UNL     1      63.623   8.698   5.499  1.00  0.00     0.167 A 
HETATM    9  O   UNL     1      62.966   7.843   6.331  1.00  0.00    -0.233 OA
HETATM   10  N   UNL     1      63.698   6.682   6.497  1.00  0.00    -0.272 N 
HETATM   11  C   UNL     1      64.774   6.835   5.724  1.00  0.00     0.117 A 
ATOM     12  HN  UNL     1      63.465   5.881   7.085  1.00  0.00     0.194 HD
HETATM   13  C   UNL     1      64.772   8.074   5.062  1.00  0.00     0.064 A 
ENDBRANCH   1   8
TORSDOF 1
ENDMDL
MODEL 3
REMARK VINA RESULT:      -4.7      2.181      2.869
REMARK  1 active torsions:
REMARK  status: ('A' for Active; 'I' for Inactive)
REMARK    1  A    between atoms: C_1  and  C_2 
REMARK       I    between atoms: C_2  and  N_3 
ROOT
HETATM    1  C   UNL     1      63.321   8.083   6.032  1.00  0.00     0.279 C 
HETATM    2  N   UNL     1      64.556   7.521   5.730  1.00  0.00    -0.346 N 
HETATM    3  O   UNL     1      62.607   7.568   6.897  1.00  0.00    -0.265 OA
HETATM    4  C   UNL     1      65.647   8.075   4.949  1.00  0.00     0.126 C 
HETATM    5  C   UNL     1      64.985   6.306   6.405  1.00  0.00     0.126 C 
HETATM    6  C   UNL     1      66.345   5.960   5.803  1.00  0.00     0.021 C 
HETATM    7  C   UNL     1      66.454   6.847   4.570  1.00  0.00     0.021 C 
ENDROOT
BRANCH   1   8
HETATM    8  C   UNL     1      62.883   9.273   5.335  1.00  0.00     0.167 A 
HETATM    9  O   UNL     1      63.053  10.509   5.883  1.00  0.00    -0.233 OA
HETATM   10  N   UNL     1      62.573  11.481   5.024  1.00  0.00    -0.272 N 
HETATM   11  C   UNL     1      62.157  10.817   3.945  1.00  0.00     0.117 A 
ATOM     12  HN  UNL     1      62.544  12.489   5.183  1.00  0.00     0.194 HD
HETATM   13  C   UNL     1      62.341   9.432   4.078  1.00  0.00     0.064 A 
ENDBRANCH   1   8
TORSDOF 1
ENDMDL
MODEL 4
REMARK VINA RESULT:      -4.6      2.950      3.973
REMARK  1 active torsions:
REMARK  status: ('A' for Active; 'I' for Inactive)
REMARK    1  A    between atoms: C_1  and  C_2 
REMARK       I    between atoms: C_2  and  N_3 
ROOT
HETATM    1  C   UNL     1      62.082   8.185   4.360  1.00  0.00     0.279 C 
HETATM    2  N   UNL     1      63.284   7.978   5.025  1.00  0.00    -0.346 N 
HETATM    3  O   UNL     1      61.132   7.422   4.557  1.00  0.00    -0.265 OA
HETATM    4  C   UNL     1      64.431   8.862   5.141  1.00  0.00     0.126 C 
HETATM    5  C   UNL     1      63.432   6.840   5.920  1.00  0.00     0.126 C 
HETATM    6  C   UNL     1      64.870   6.903   6.430  1.00  0.00     0.021 C 
HETATM    7  C   UNL     1      65.555   7.916   5.522  1.00  0.00     0.021 C 
ENDROOT
BRANCH   1   8
HETATM    8  C   UNL     1      61.949   9.299   3.446  1.00  0.00     0.167 A 
HETATM    9  O   UNL     1      61.635  10.545   3.900  1.00  0.00    -0.233 OA
HETATM   10  N   UNL     1      61.583  11.437   2.845  1.00  0.00    -0.272 N 
HETATM   11  C   UNL     1      61.910  10.723   1.768  1.00  0.00     0.117 A 
ATOM     12  HN  UNL     1      61.345  12.429   2.883  1.00  0.00     0.194 HD
HETATM   13  C   UNL     1      62.166   9.379   2.087  1.00  0.00     0.064 A 
ENDBRANCH   1   8
TORSDOF 1
ENDMDL
MODEL 5
REMARK VINA RESULT:      -4.4      1.771      4.846
REMARK  1 active torsions:
REMARK  status: ('A' for Active; 'I' for Inactive)
REMARK    1  A    between atoms: C_1  and  C_2 
REMARK       I    between atoms: C_2  and  N_3 
ROOT
HETATM    1  C   UNL     1      64.598   8.871   5.199  1.00  0.00     0.279 C 
HETATM    2  N   UNL     1      63.804   8.372   4.173  1.00  0.00    -0.346 N 
HETATM    3  O   UNL     1      64.362   9.988   5.669  1.00  0.00    -0.265 OA
HETATM    4  C   UNL     1      63.735   7.022   3.644  1.00  0.00     0.126 C 
HETATM    5  C   UNL     1      62.724   9.182   3.631  1.00  0.00     0.126 C 
HETATM    6  C   UNL     1      62.107   8.347   2.511  1.00  0.00     0.021 C 
HETATM    7  C   UNL     1      63.105   7.222   2.277  1.00  0.00     0.021 C 
ENDROOT
BRANCH   1   8
HETATM    8  C   UNL     1      65.691   8.075   5.713  1.00  0.00     0.167 A 
HETATM    9  O   UNL     1      65.597   7.453   6.922  1.00  0.00    -0.233 OA
HETATM   10  N   UNL     1      66.755   6.745   7.184  1.00  0.00    -0.272 N 
HETATM   11  C   UNL     1      67.520   6.915   6.105  1.00  0.00     0.117 A 
ATOM     12  HN  UNL     1      66.977   6.208   8.023  1.00  0.00     0.194 HD
HETATM   13  C   UNL     1      66.897   7.728   5.144  1.00  0.00     0.064 A 
ENDBRANCH   1   8
TORSDOF 1
ENDMDL
MODEL 6
REMARK VINA RESULT:      -4.3      1.897      5.008
REMARK  1 active torsions:
REMARK  status: ('A' for Active; 'I' for Inactive)
REMARK    1  A    between atoms: C_1  and  C_2 
REMARK       I    between atoms: C_2  and  N_3 
ROOT
HETATM    1  C   UNL     1      64.083   7.829   4.419  1.00  0.00     0.279 C 
HETATM    2  N   UNL     1      63.418   9.043   4.290  1.00  0.00    -0.346 N 
HETATM    3  O   UNL     1      63.946   6.959   3.554  1.00  0.00    -0.265 OA
HETATM    4  C   UNL     1      63.612  10.276   5.032  1.00  0.00     0.126 C 
HETATM    5  C   UNL     1      62.533   9.269   3.158  1.00  0.00     0.126 C 
HETATM    6  C   UNL     1      61.953  10.666   3.363  1.00  0.00     0.021 C 
HETATM    7  C   UNL     1      62.312  11.023   4.799  1.00  0.00     0.021 C 
ENDROOT
BRANCH   1   8
HETATM    8  C   UNL     1      64.937   7.595   5.564  1.00  0.00     0.167 A 
HETATM    9  O   UNL     1      64.424   7.135   6.739  1.00  0.00    -0.233 OA
HETATM   10  N   UNL     1      65.433   6.977   7.671  1.00  0.00    -0.272 N 
HETATM   11  C   UNL     1      66.555   7.306   7.028  1.00  0.00     0.117 A 
ATOM     12  HN  UNL     1      65.340   6.675   8.641  1.00  0.00     0.194 HD
HETATM   13  C   UNL     1      66.305   7.686   5.699  1.00  0.00     0.064 A 
ENDBRANCH   1   8
TORSDOF 1
ENDMDL
MODEL 7
REMARK VINA RESULT:      -4.3      3.597      4.541
REMARK  1 active torsions:
REMARK  status: ('A' for Active; 'I' for Inactive)
REMARK    1  A    between atoms: C_1  and  C_2 
REMARK       I    between atoms: C_2  and  N_3 
ROOT
HETATM    1  C   UNL     1      62.803   8.779   4.846  1.00  0.00     0.279 C 
HETATM    2  N   UNL     1      62.097   7.633   5.193  1.00  0.00    -0.346 N 
HETATM    3  O   UNL     1      63.800   9.105   5.496  1.00  0.00    -0.265 OA
HETATM    4  C   UNL     1      61.067   6.932   4.448  1.00  0.00     0.126 C 
HETATM    5  C   UNL     1      62.512   6.845   6.343  1.00  0.00     0.126 C 
HETATM    6  C   UNL     1      61.500   5.706   6.448  1.00  0.00     0.021 C 
HETATM    7  C   UNL     1      60.366   6.116   5.518  1.00  0.00     0.021 C 
ENDROOT
BRANCH   1   8
HETATM    8  C   UNL     1      62.367   9.578   3.722  1.00  0.00     0.167 A 
HETATM    9  O   UNL     1      61.851  10.826   3.906  1.00  0.00    -0.233 OA
HETATM   10  N   UNL     1      61.525  11.391   2.687  1.00  0.00    -0.272 N 
HETATM   11  C   UNL     1      61.891  10.490   1.776  1.00  0.00     0.117 A 
ATOM     12  HN  UNL     1      61.097  12.303   2.522  1.00  0.00     0.194 HD
HETATM   13  C   UNL     1      62.440   9.340   2.366  1.00  0.00     0.064 A 
ENDBRANCH   1   8
TORSDOF 1
ENDMDL
MODEL 8
REMARK VINA RESULT:      -4.3      2.076      4.913
REMARK  1 active torsions:
REMARK  status: ('A' for Active; 'I' for Inactive)
REMARK    1  A    between atoms: C_1  and  C_2 
REMARK       I    between atoms: C_2  and  N_3 
ROOT
HETATM    1  C   UNL     1      63.546   7.566   5.993  1.00  0.00     0.279 C 
HETATM    2  N   UNL     1      63.115   7.496   4.673  1.00  0.00    -0.346 N 
HETATM    3  O   UNL     1      62.719   7.674   6.903  1.00  0.00    -0.265 OA
HETATM    4  C   UNL     1      63.864   7.129   3.484  1.00  0.00     0.126 C 
HETATM    5  C   UNL     1      61.696   7.591   4.367  1.00  0.00     0.126 C 
HETATM    6  C   UNL     1      61.600   7.522   2.844  1.00  0.00     0.021 C 
HETATM    7  C   UNL     1      63.030   7.717   2.361  1.00  0.00     0.021 C 
ENDROOT
BRANCH   1   8
HETATM    8  C   UNL     1      64.960   7.504   6.292  1.00  0.00     0.167 A 
HETATM    9  O   UNL     1      65.750   8.608   6.177  1.00  0.00    -0.233 OA
HETATM   10  N   UNL     1      67.051   8.302   6.531  1.00  0.00    -0.272 N 
HETATM   11  C   UNL     1      67.020   7.020   6.898  1.00  0.00     0.117 A 
ATOM     12  HN  UNL     1      67.860   8.923   6.514  1.00  0.00     0.194 HD
HETATM   13  C   UNL     1      65.732   6.473   6.783  1.00  0.00     0.064 A 
ENDBRANCH   1   8
TORSDOF 1
ENDMDL
MODEL 9
REMARK VINA RESULT:      -4.3      2.030      4.688
REMARK  1 active torsions:
REMARK  status: ('A' for Active; 'I' for Inactive)
REMARK    1  A    between atoms: C_1  and  C_2 
REMARK       I    between atoms: C_2  and  N_3 
ROOT
HETATM    1  C   UNL     1      66.017   7.684   6.472  1.00  0.00     0.279 C 
HETATM    2  N   UNL     1      64.991   7.567   5.541  1.00  0.00    -0.346 N 
HETATM    3  O   UNL     1      66.490   8.795   6.727  1.00  0.00    -0.265 OA
HETATM    4  C   UNL     1      64.131   6.430   5.265  1.00  0.00     0.126 C 
HETATM    5  C   UNL     1      64.507   8.747   4.842  1.00  0.00     0.126 C 
HETATM    6  C   UNL     1      63.431   8.244   3.883  1.00  0.00     0.021 C 
HETATM    7  C   UNL     1      63.602   6.731   3.875  1.00  0.00     0.021 C 
ENDROOT
BRANCH   1   8
HETATM    8  C   UNL     1      66.518   6.503   7.141  1.00  0.00     0.167 A 
HETATM    9  O   UNL     1      65.946   6.055   8.294  1.00  0.00    -0.233 OA
HETATM   10  N   UNL     1      66.586   4.909   8.729  1.00  0.00    -0.272 N 
HETATM   11  C   UNL     1      67.513   4.655   7.805  1.00  0.00     0.117 A 
ATOM     12  HN  UNL     1      66.391   4.373   9.576  1.00  0.00     0.194 HD
HETATM   13  C   UNL     1      67.505   5.613   6.777  1.00  0.00     0.064 A 
ENDBRANCH   1   8
TORSDOF 1
ENDMDL
