MODEL 1
REMARK VINA RESULT:      -3.9      0.000      0.000
REMARK  1 active torsions:
REMARK  status: ('A' for Active; 'I' for Inactive)
REMARK    1  A    between atoms: C_5  and  N_9 
ROOT
HETATM    1  N   UNL     1      63.194   9.573   4.844  1.00  0.00    -0.350 N 
ATOM      2  HN  UNL     1      63.733   9.033   5.521  1.00  0.00     0.166 HD
HETATM    3  N   UNL     1      61.694  11.046   2.944  1.00  0.00    -0.365 N 
ATOM      4  HN  UNL     1      61.156  11.588   2.266  1.00  0.00     0.165 HD
HETATM    5  C   UNL     1      62.825  10.844   5.075  1.00  0.00     0.114 A 
HETATM    6  C   UNL     1      62.075  11.555   4.142  1.00  0.00     0.136 A 
HETATM    7  C   UNL     1      62.076   9.769   2.711  1.00  0.00     0.020 A 
HETATM    8  C   UNL     1      62.806   9.053   3.653  1.00  0.00     0.114 A 
HETATM    9  C   UNL     1      61.681   9.142   1.411  1.00  0.00     0.069 C 
ENDROOT
BRANCH   5  10
HETATM   10  N   UNL     1      63.200  11.393   6.300  1.00  0.00    -0.384 N 
HETATM   11  H   UNL     1      62.750  11.106   7.126  1.00  0.00     0.157 HD
HETATM   12  H   UNL     1      63.915  12.069   6.338  1.00  0.00     0.157 HD
ENDBRANCH   5  10
TORSDOF 1
ENDMDL
MODEL 2
REMARK VINA RESULT:      -3.5      1.584      2.462
REMARK  1 active torsions:
REMARK  status: ('A' for Active; 'I' for Inactive)
REMARK    1  A    between atoms: C_5  and  N_9 
ROOT
HETATM    1  N   UNL     1      63.028   9.834   5.790  1.00  0.00    -0.350 N 
ATOM      2  HN  UNL     1      63.415  10.120   6.690  1.00  0.00     0.166 HD
HETATM    3  N   UNL     1      61.954   9.071   3.281  1.00  0.00    -0.365 N 
ATOM      4  HN  UNL     1      61.565   8.784   2.383  1.00  0.00     0.165 HD
HETATM    5  C   UNL     1      62.847   8.542   5.468  1.00  0.00     0.114 A 
HETATM    6  C   UNL     1      62.333   8.176   4.227  1.00  0.00     0.136 A 
HETATM    7  C   UNL     1      62.129  10.372   3.613  1.00  0.00     0.020 A 
HETATM    8  C   UNL     1      62.663  10.735   4.844  1.00  0.00     0.114 A 
HETATM    9  C   UNL     1      61.739  11.412   2.611  1.00  0.00     0.069 C 
ENDROOT
BRANCH   5  10
HETATM   10  N   UNL     1      63.230   7.599   6.420  1.00  0.00    -0.384 N 
HETATM   11  H   UNL     1      64.133   7.634   6.812  1.00  0.00     0.157 HD
HETATM   12  H   UNL     1      62.599   6.898   6.701  1.00  0.00     0.157 HD
ENDBRANCH   5  10
TORSDOF 1
ENDMDL
MODEL 3
REMARK VINA RESULT:      -3.5      4.963      5.910
REMARK  1 active torsions:
REMARK  status: ('A' for Active; 'I' for Inactive)
REMARK    1  A    between atoms: C_5  and  N_9 
ROOT
HETATM    1  N   UNL     1      67.635   7.561   6.645  1.00  0.00    -0.350 N 
ATOM      2  HN  UNL     1      68.638   7.724   6.548  1.00  0.00     0.166 HD
HETATM    3  N   UNL     1      64.845   7.122   6.883  1.00  0.00    -0.365 N 
ATOM      4  HN  UNL     1      63.843   6.960   6.981  1.00  0.00     0.165 HD
HETATM    5  C   UNL     1      67.122   6.847   7.660  1.00  0.00     0.114 A 
HETATM    6  C   UNL     1      65.751   6.624   7.761  1.00  0.00     0.136 A 
HETATM    7  C   UNL     1      65.366   7.849   5.866  1.00  0.00     0.020 A 
HETATM    8  C   UNL     1      66.737   8.052   5.756  1.00  0.00     0.114 A 
HETATM    9  C   UNL     1      64.423   8.422   4.856  1.00  0.00     0.069 C 
ENDROOT
BRANCH   5  10
HETATM   10  N   UNL     1      68.028   6.319   8.577  1.00  0.00    -0.384 N 
HETATM   11  H   UNL     1      67.725   6.064   9.478  1.00  0.00     0.157 HD
HETATM   12  H   UNL     1      68.973   6.201   8.324  1.00  0.00     0.157 HD
ENDBRANCH   5  10
TORSDOF 1
ENDMDL
MODEL 4
REMARK VINA RESULT:      -3.4      1.647      3.088
REMARK  1 active torsions:
REMARK  status: ('A' for Active; 'I' for Inactive)
REMARK    1  A    between atoms: C_5  and  N_9 
ROOT
HETATM    1  N   UNL     1      61.665   9.103   3.342  1.00  0.00    -0.350 N 
ATOM      2  HN  UNL     1      61.149   8.910   2.484  1.00  0.00     0.166 HD
HETATM    3  N   UNL     1      63.104   9.608   5.731  1.00  0.00    -0.365 N 
ATOM      4  HN  UNL     1      63.618   9.802   6.591  1.00  0.00     0.165 HD
HETATM    5  C   UNL     1      61.999  10.352   3.710  1.00  0.00     0.114 A 
HETATM    6  C   UNL     1      62.719  10.589   4.878  1.00  0.00     0.136 A 
HETATM    7  C   UNL     1      62.757   8.352   5.363  1.00  0.00     0.020 A 
HETATM    8  C   UNL     1      62.057   8.116   4.185  1.00  0.00     0.114 A 
HETATM    9  C   UNL     1      63.159   7.221   6.255  1.00  0.00     0.069 C 
ENDROOT
BRANCH   5  10
HETATM   10  N   UNL     1      61.619  11.381   2.850  1.00  0.00    -0.384 N 
HETATM   11  H   UNL     1      60.987  12.070   3.157  1.00  0.00     0.157 HD
HETATM   12  H   UNL     1      61.983  11.419   1.936  1.00  0.00     0.157 HD
ENDBRANCH   5  10
TORSDOF 1
ENDMDL
MODEL 5
REMARK VINA RESULT:      -3.2      6.640      7.817
REMARK  1 active torsions:
REMARK  status: ('A' for Active; 'I' for Inactive)
REMARK    1  A    between atoms: C_5  and  N_9 
ROOT
HETATM    1  N   UNL     1      67.719   6.573   6.704  1.00  0.00    -0.350 N 
ATOM      2  HN  UNL     1      68.274   6.998   5.961  1.00  0.00     0.166 HD
HETATM    3  N   UNL     1      66.200   5.370   8.772  1.00  0.00    -0.365 N 
ATOM      4  HN  UNL     1      65.643   4.944   9.514  1.00  0.00     0.165 HD
HETATM    5  C   UNL     1      66.589   7.137   7.164  1.00  0.00     0.114 A 
HETATM    6  C   UNL     1      65.857   6.546   8.191  1.00  0.00     0.136 A 
HETATM    7  C   UNL     1      67.334   4.800   8.300  1.00  0.00     0.020 A 
HETATM    8  C   UNL     1      68.074   5.403   7.289  1.00  0.00     0.114 A 
HETATM    9  C   UNL     1      67.774   3.504   8.904  1.00  0.00     0.069 C 
ENDROOT
BRANCH   5  10
HETATM   10  N   UNL     1      66.213   8.349   6.587  1.00  0.00    -0.384 N 
HETATM   11  H   UNL     1      66.898   8.952   6.219  1.00  0.00     0.157 HD
HETATM   12  H   UNL     1      65.263   8.602   6.549  1.00  0.00     0.157 HD
ENDBRANCH   5  10
TORSDOF 1
ENDMDL
MODEL 6
REMARK VINA RESULT:      -3.2      1.623      3.404
REMARK  1 active torsions:
REMARK  status: ('A' for Active; 'I' for Inactive)
REMARK    1  A    between atoms: C_5  and  N_9 
ROOT
HETATM    1  N   UNL     1      62.613   8.603   2.746  1.00  0.00    -0.350 N 
ATOM      2  HN  UNL     1      62.890   7.626   2.646  1.00  0.00     0.166 HD
HETATM    3  N   UNL     1      61.857  11.317   3.054  1.00  0.00    -0.365 N 
ATOM      4  HN  UNL     1      61.578  12.293   3.154  1.00  0.00     0.165 HD
HETATM    5  C   UNL     1      62.071   9.300   1.733  1.00  0.00     0.114 A 
HETATM    6  C   UNL     1      61.716  10.637   1.889  1.00  0.00     0.136 A 
HETATM    7  C   UNL     1      62.395  10.610   4.075  1.00  0.00     0.020 A 
HETATM    8  C   UNL     1      62.768   9.280   3.911  1.00  0.00     0.114 A 
HETATM    9  C   UNL     1      62.586  11.302   5.388  1.00  0.00     0.069 C 
ENDROOT
BRANCH   5  10
HETATM   10  N   UNL     1      61.917   8.628   0.522  1.00  0.00    -0.384 N 
HETATM   11  H   UNL     1      61.754   9.136  -0.305  1.00  0.00     0.157 HD
HETATM   12  H   UNL     1      61.971   7.645   0.494  1.00  0.00     0.157 HD
ENDBRANCH   5  10
TORSDOF 1
ENDMDL
MODEL 7
REMARK VINA RESULT:      -3.1      5.005      6.065
REMARK  1 active torsions:
REMARK  status: ('A' for Active; 'I' for Inactive)
REMARK    1  A    between atoms: C_5  and  N_9 
ROOT
HETATM    1  N   UNL     1      65.092   5.341   6.932  1.00  0.00    -0.350 N 
ATOM      2  HN  UNL     1      64.684   4.407   6.959  1.00  0.00     0.166 HD
HETATM    3  N   UNL     1      66.204   7.947   6.834  1.00  0.00    -0.365 N 
ATOM      4  HN  UNL     1      66.615   8.880   6.805  1.00  0.00     0.165 HD
HETATM    5  C   UNL     1      66.067   5.721   7.776  1.00  0.00     0.114 A 
HETATM    6  C   UNL     1      66.597   7.007   7.730  1.00  0.00     0.136 A 
HETATM    7  C   UNL     1      65.229   7.558   5.979  1.00  0.00     0.020 A 
HETATM    8  C   UNL     1      64.686   6.279   6.041  1.00  0.00     0.114 A 
HETATM    9  C   UNL     1      64.742   8.548   4.969  1.00  0.00     0.069 C 
ENDROOT
BRANCH   5  10
HETATM   10  N   UNL     1      66.489   4.777   8.710  1.00  0.00    -0.384 N 
HETATM   11  H   UNL     1      65.851   4.415   9.367  1.00  0.00     0.157 HD
HETATM   12  H   UNL     1      67.425   4.473   8.715  1.00  0.00     0.157 HD
ENDBRANCH   5  10
TORSDOF 1
ENDMDL
MODEL 8
REMARK VINA RESULT:      -3.0      2.020      3.827
REMARK  1 active torsions:
REMARK  status: ('A' for Active; 'I' for Inactive)
REMARK    1  A    between atoms: C_5  and  N_9 
ROOT
HETATM    1  N   UNL     1      61.275   9.756   3.226  1.00  0.00    -0.350 N 
ATOM      2  HN  UNL     1      60.523  10.444   3.274  1.00  0.00     0.166 HD
HETATM    3  N   UNL     1      63.375   7.856   3.123  1.00  0.00    -0.365 N 
ATOM      4  HN  UNL     1      64.128   7.170   3.073  1.00  0.00     0.165 HD
HETATM    5  C   UNL     1      61.322   8.813   2.270  1.00  0.00     0.114 A 
HETATM    6  C   UNL     1      62.350   7.875   2.236  1.00  0.00     0.136 A 
HETATM    7  C   UNL     1      63.330   8.814   4.079  1.00  0.00     0.020 A 
HETATM    8  C   UNL     1      62.291   9.736   4.124  1.00  0.00     0.114 A 
HETATM    9  C   UNL     1      64.427   8.846   5.095  1.00  0.00     0.069 C 
ENDROOT
BRANCH   5  10
HETATM   10  N   UNL     1      60.279   8.805   1.346  1.00  0.00    -0.384 N 
HETATM   11  H   UNL     1      60.130   8.015   0.778  1.00  0.00     0.157 HD
HETATM   12  H   UNL     1      59.691   9.591   1.260  1.00  0.00     0.157 HD
ENDBRANCH   5  10
TORSDOF 1
ENDMDL
MODEL 9
REMARK VINA RESULT:      -2.9      1.623      3.730
REMARK  1 active torsions:
REMARK  status: ('A' for Active; 'I' for Inactive)
REMARK    1  A    between atoms: C_5  and  N_9 
ROOT
HETATM    1  N   UNL     1      61.445   9.874   3.372  1.00  0.00    -0.350 N 
ATOM      2  HN  UNL     1      60.878  10.176   2.579  1.00  0.00     0.166 HD
HETATM    3  N   UNL     1      63.023   9.068   5.584  1.00  0.00    -0.365 N 
ATOM      4  HN  UNL     1      63.592   8.766   6.375  1.00  0.00     0.165 HD
HETATM    5  C   UNL     1      61.627   8.576   3.668  1.00  0.00     0.114 A 
HETATM    6  C   UNL     1      62.391   8.190   4.766  1.00  0.00     0.136 A 
HETATM    7  C   UNL     1      62.846  10.375   5.276  1.00  0.00     0.020 A 
HETATM    8  C   UNL     1      62.064  10.759   4.192  1.00  0.00     0.114 A 
HETATM    9  C   UNL     1      63.509  11.398   6.143  1.00  0.00     0.069 C 
ENDROOT
BRANCH   5  10
HETATM   10  N   UNL     1      60.986   7.650   2.847  1.00  0.00    -0.384 N 
HETATM   11  H   UNL     1      60.772   6.753   3.191  1.00  0.00     0.157 HD
HETATM   12  H   UNL     1      60.749   7.893   1.923  1.00  0.00     0.157 HD
ENDBRANCH   5  10
TORSDOF 1
ENDMDL
