MODEL 1
REMARK VINA RESULT:      -5.2      0.000      0.000
REMARK  1 active torsions:
REMARK  status: ('A' for Active; 'I' for Inactive)
REMARK       I    between atoms: C_1  and  N_2 
REMARK    1  A    between atoms: C_1  and  C_4 
ROOT
HETATM    1  C   UNL     1      63.817   9.058   5.007  1.00  0.00     0.224 C 
HETATM    2  N   UNL     1      62.717   9.072   4.151  1.00  0.00    -0.352 N 
HETATM    3  O   UNL     1      64.159  10.051   5.651  1.00  0.00    -0.273 OA
HETATM    4  C   UNL     1      62.011  10.328   3.908  1.00  0.00     0.125 C 
HETATM    5  C   UNL     1      62.192   7.935   3.393  1.00  0.00     0.125 C 
HETATM    6  C   UNL     1      62.285   8.217   1.898  1.00  0.00     0.020 C 
HETATM    7  C   UNL     1      62.057  10.676   2.419  1.00  0.00     0.020 C 
HETATM    8  C   UNL     1      61.563   9.516   1.550  1.00  0.00     0.003 C 
ENDROOT
BRANCH   1   9
HETATM    9  C   UNL     1      64.625   7.763   5.085  1.00  0.00     0.082 C 
HETATM   10  C   UNL     1      64.285   6.914   6.312  1.00  0.00     0.040 C 
HETATM   11  C   UNL     1      65.172   5.673   6.315  1.00  0.00     0.168 C 
HETATM   12  O   UNL     1      66.550   6.034   6.331  1.00  0.00    -0.391 OA
HETATM   13  C   UNL     1      66.932   6.796   5.185  1.00  0.00     0.168 C 
HETATM   14  C   UNL     1      66.121   8.080   5.099  1.00  0.00     0.040 C 
ENDBRANCH   1   9
TORSDOF 1
ENDMDL
MODEL 2
REMARK VINA RESULT:      -5.0      1.923      5.282
REMARK  1 active torsions:
REMARK  status: ('A' for Active; 'I' for Inactive)
REMARK       I    between atoms: C_1  and  N_2 
REMARK    1  A    between atoms: C_1  and  C_4 
ROOT
HETATM    1  C   UNL     1      63.847   7.813   6.001  1.00  0.00     0.224 C 
HETATM    2  N   UNL     1      65.194   7.459   5.937  1.00  0.00    -0.352 N 
HETATM    3  O   UNL     1      63.097   7.378   6.876  1.00  0.00    -0.273 OA
HETATM    4  C   UNL     1      65.717   6.449   6.855  1.00  0.00     0.125 C 
HETATM    5  C   UNL     1      66.180   7.966   4.981  1.00  0.00     0.125 C 
HETATM    6  C   UNL     1      66.715   6.822   4.128  1.00  0.00     0.020 C 
HETATM    7  C   UNL     1      66.281   5.265   6.066  1.00  0.00     0.020 C 
HETATM    8  C   UNL     1      67.293   5.717   5.010  1.00  0.00     0.003 C 
ENDROOT
BRANCH   1   9
HETATM    9  C   UNL     1      63.314   8.735   4.905  1.00  0.00     0.082 C 
HETATM   10  C   UNL     1      62.965  10.136   5.415  1.00  0.00     0.040 C 
HETATM   11  C   UNL     1      62.407  10.957   4.258  1.00  0.00     0.168 C 
HETATM   12  O   UNL     1      61.253  10.333   3.701  1.00  0.00    -0.391 OA
HETATM   13  C   UNL     1      61.532   9.036   3.174  1.00  0.00     0.168 C 
HETATM   14  C   UNL     1      62.074   8.118   4.260  1.00  0.00     0.040 C 
ENDBRANCH   1   9
TORSDOF 1
ENDMDL
MODEL 3
REMARK VINA RESULT:      -4.5      1.825      2.601
REMARK  1 active torsions:
REMARK  status: ('A' for Active; 'I' for Inactive)
REMARK       I    between atoms: C_1  and  N_2 
REMARK    1  A    between atoms: C_1  and  C_4 
ROOT
HETATM    1  C   UNL     1      65.472   7.799   5.772  1.00  0.00     0.224 C 
HETATM    2  N   UNL     1      64.102   8.000   5.604  1.00  0.00    -0.352 N 
HETATM    3  O   UNL     1      66.307   8.606   5.361  1.00  0.00    -0.273 OA
HETATM    4  C   UNL     1      63.634   9.136   4.813  1.00  0.00     0.125 C 
HETATM    5  C   UNL     1      63.030   7.140   6.107  1.00  0.00     0.125 C 
HETATM    6  C   UNL     1      62.227   6.572   4.942  1.00  0.00     0.020 C 
HETATM    7  C   UNL     1      62.810   8.642   3.621  1.00  0.00     0.020 C 
HETATM    8  C   UNL     1      61.689   7.696   4.060  1.00  0.00     0.003 C 
ENDROOT
BRANCH   1   9
HETATM    9  C   UNL     1      65.908   6.502   6.452  1.00  0.00     0.082 C 
HETATM   10  C   UNL     1      66.180   6.669   7.949  1.00  0.00     0.040 C 
HETATM   11  C   UNL     1      66.646   5.333   8.518  1.00  0.00     0.168 C 
HETATM   12  O   UNL     1      67.821   4.879   7.851  1.00  0.00    -0.391 OA
HETATM   13  C   UNL     1      67.613   4.669   6.454  1.00  0.00     0.168 C 
HETATM   14  C   UNL     1      67.167   5.956   5.777  1.00  0.00     0.040 C 
ENDBRANCH   1   9
TORSDOF 1
ENDMDL
MODEL 4
REMARK VINA RESULT:      -4.0      2.787      3.559
REMARK  1 active torsions:
REMARK  status: ('A' for Active; 'I' for Inactive)
REMARK       I    between atoms: C_1  and  N_2 
REMARK    1  A    between atoms: C_1  and  C_4 
ROOT
HETATM    1  C   UNL     1      61.537   6.608   5.887  1.00  0.00     0.224 C 
HETATM    2  N   UNL     1      60.625   6.353   4.864  1.00  0.00    -0.352 N 
HETATM    3  O   UNL     1      61.255   6.436   7.074  1.00  0.00    -0.273 OA
HETATM    4  C   UNL     1      59.251   5.986   5.200  1.00  0.00     0.125 C 
HETATM    5  C   UNL     1      60.880   6.463   3.427  1.00  0.00     0.125 C 
HETATM    6  C   UNL     1      59.973   7.525   2.816  1.00  0.00     0.020 C 
HETATM    7  C   UNL     1      58.277   7.010   4.612  1.00  0.00     0.020 C 
HETATM    8  C   UNL     1      58.507   7.216   3.113  1.00  0.00     0.003 C 
ENDROOT
BRANCH   1   9
HETATM    9  C   UNL     1      62.904   7.160   5.483  1.00  0.00     0.082 C 
HETATM   10  C   UNL     1      64.020   6.778   6.458  1.00  0.00     0.040 C 
HETATM   11  C   UNL     1      65.325   7.411   5.986  1.00  0.00     0.168 C 
HETATM   12  O   UNL     1      65.203   8.829   5.908  1.00  0.00    -0.391 OA
HETATM   13  C   UNL     1      64.199   9.242   4.980  1.00  0.00     0.168 C 
HETATM   14  C   UNL     1      62.839   8.684   5.373  1.00  0.00     0.040 C 
ENDBRANCH   1   9
TORSDOF 1
ENDMDL
MODEL 5
REMARK VINA RESULT:      -4.0      2.209      3.426
REMARK  1 active torsions:
REMARK  status: ('A' for Active; 'I' for Inactive)
REMARK       I    between atoms: C_1  and  N_2 
REMARK    1  A    between atoms: C_1  and  C_4 
ROOT
HETATM    1  C   UNL     1      62.450   6.639   3.402  1.00  0.00     0.224 C 
HETATM    2  N   UNL     1      61.879   6.806   2.141  1.00  0.00    -0.352 N 
HETATM    3  O   UNL     1      62.118   5.721   4.155  1.00  0.00    -0.273 OA
HETATM    4  C   UNL     1      60.767   5.949   1.735  1.00  0.00     0.125 C 
HETATM    5  C   UNL     1      62.245   7.820   1.151  1.00  0.00     0.125 C 
HETATM    6  C   UNL     1      61.056   8.732   0.874  1.00  0.00     0.020 C 
HETATM    7  C   UNL     1      59.532   6.800   1.433  1.00  0.00     0.020 C 
HETATM    8  C   UNL     1      59.842   7.917   0.433  1.00  0.00     0.003 C 
ENDROOT
BRANCH   1   9
HETATM    9  C   UNL     1      63.483   7.675   3.844  1.00  0.00     0.082 C 
HETATM   10  C   UNL     1      64.651   7.065   4.623  1.00  0.00     0.040 C 
HETATM   11  C   UNL     1      65.596   8.184   5.050  1.00  0.00     0.168 C 
HETATM   12  O   UNL     1      64.916   9.144   5.854  1.00  0.00    -0.391 OA
HETATM   13  C   UNL     1      63.838   9.774   5.161  1.00  0.00     0.168 C 
HETATM   14  C   UNL     1      62.813   8.744   4.709  1.00  0.00     0.040 C 
ENDBRANCH   1   9
TORSDOF 1
ENDMDL
MODEL 6
REMARK VINA RESULT:      -3.9      4.787      6.664
REMARK  1 active torsions:
REMARK  status: ('A' for Active; 'I' for Inactive)
REMARK       I    between atoms: C_1  and  N_2 
REMARK    1  A    between atoms: C_1  and  C_4 
ROOT
HETATM    1  C   UNL     1      58.737   7.484   1.948  1.00  0.00     0.224 C 
HETATM    2  N   UNL     1      60.128   7.585   1.944  1.00  0.00    -0.352 N 
HETATM    3  O   UNL     1      58.042   7.977   1.059  1.00  0.00    -0.273 OA
HETATM    4  C   UNL     1      60.786   8.401   0.925  1.00  0.00     0.125 C 
HETATM    5  C   UNL     1      61.046   6.984   2.913  1.00  0.00     0.125 C 
HETATM    6  C   UNL     1      61.818   8.074   3.646  1.00  0.00     0.020 C 
HETATM    7  C   UNL     1      61.591   9.520   1.589  1.00  0.00     0.020 C 
HETATM    8  C   UNL     1      62.548   8.976   2.653  1.00  0.00     0.003 C 
ENDROOT
BRANCH   1   9
HETATM    9  C   UNL     1      58.094   6.769   3.137  1.00  0.00     0.082 C 
HETATM   10  C   UNL     1      56.815   6.014   2.764  1.00  0.00     0.040 C 
HETATM   11  C   UNL     1      56.235   5.377   4.022  1.00  0.00     0.168 C 
HETATM   12  O   UNL     1      55.954   6.365   5.010  1.00  0.00    -0.391 OA
HETATM   13  C   UNL     1      57.122   7.075   5.423  1.00  0.00     0.168 C 
HETATM   14  C   UNL     1      57.772   7.777   4.240  1.00  0.00     0.040 C 
ENDBRANCH   1   9
TORSDOF 1
ENDMDL
MODEL 7
REMARK VINA RESULT:      -3.8      3.461      4.656
REMARK  1 active torsions:
REMARK  status: ('A' for Active; 'I' for Inactive)
REMARK       I    between atoms: C_1  and  N_2 
REMARK    1  A    between atoms: C_1  and  C_4 
ROOT
HETATM    1  C   UNL     1      61.330   6.621   3.354  1.00  0.00     0.224 C 
HETATM    2  N   UNL     1      62.019   7.795   3.051  1.00  0.00    -0.352 N 
HETATM    3  O   UNL     1      61.169   5.723   2.525  1.00  0.00    -0.273 OA
HETATM    4  C   UNL     1      62.463   8.034   1.680  1.00  0.00     0.125 C 
HETATM    5  C   UNL     1      62.318   8.889   3.976  1.00  0.00     0.125 C 
HETATM    6  C   UNL     1      61.640  10.171   3.505  1.00  0.00     0.020 C 
HETATM    7  C   UNL     1      61.825   9.315   1.137  1.00  0.00     0.020 C 
HETATM    8  C   UNL     1      62.056  10.505   2.074  1.00  0.00     0.003 C 
ENDROOT
BRANCH   1   9
HETATM    9  C   UNL     1      60.733   6.504   4.756  1.00  0.00     0.082 C 
HETATM   10  C   UNL     1      61.361   5.382   5.587  1.00  0.00     0.040 C 
HETATM   11  C   UNL     1      60.669   5.326   6.944  1.00  0.00     0.168 C 
HETATM   12  O   UNL     1      59.270   5.101   6.792  1.00  0.00    -0.391 OA
HETATM   13  C   UNL     1      58.624   6.141   6.056  1.00  0.00     0.168 C 
HETATM   14  C   UNL     1      59.225   6.268   4.663  1.00  0.00     0.040 C 
ENDBRANCH   1   9
TORSDOF 1
ENDMDL
MODEL 8
REMARK VINA RESULT:      -3.8      1.831      2.828
REMARK  1 active torsions:
REMARK  status: ('A' for Active; 'I' for Inactive)
REMARK       I    between atoms: C_1  and  N_2 
REMARK    1  A    between atoms: C_1  and  C_4 
ROOT
HETATM    1  C   UNL     1      64.527   6.787   3.565  1.00  0.00     0.224 C 
HETATM    2  N   UNL     1      63.497   7.508   2.962  1.00  0.00    -0.352 N 
HETATM    3  O   UNL     1      65.019   5.786   3.043  1.00  0.00    -0.273 OA
HETATM    4  C   UNL     1      62.891   7.003   1.731  1.00  0.00     0.125 C 
HETATM    5  C   UNL     1      62.888   8.740   3.465  1.00  0.00     0.125 C 
HETATM    6  C   UNL     1      61.410   8.511   3.757  1.00  0.00     0.020 C 
HETATM    7  C   UNL     1      61.397   6.753   1.946  1.00  0.00     0.020 C 
HETATM    8  C   UNL     1      60.691   7.986   2.516  1.00  0.00     0.003 C 
ENDROOT
BRANCH   1   9
HETATM    9  C   UNL     1      64.998   7.262   4.939  1.00  0.00     0.082 C 
HETATM   10  C   UNL     1      66.456   7.730   4.947  1.00  0.00     0.040 C 
HETATM   11  C   UNL     1      66.835   8.140   6.366  1.00  0.00     0.168 C 
HETATM   12  O   UNL     1      66.661   7.055   7.272  1.00  0.00    -0.391 OA
HETATM   13  C   UNL     1      65.308   6.604   7.335  1.00  0.00     0.168 C 
HETATM   14  C   UNL     1      64.831   6.141   5.965  1.00  0.00     0.040 C 
ENDBRANCH   1   9
TORSDOF 1
ENDMDL
MODEL 9
REMARK VINA RESULT:      -3.8      3.486      5.485
REMARK  1 active torsions:
REMARK  status: ('A' for Active; 'I' for Inactive)
REMARK       I    between atoms: C_1  and  N_2 
REMARK    1  A    between atoms: C_1  and  C_4 
ROOT
HETATM    1  C   UNL     1      61.711   7.688   2.361  1.00  0.00     0.224 C 
HETATM    2  N   UNL     1      60.593   6.912   2.058  1.00  0.00    -0.352 N 
HETATM    3  O   UNL     1      62.847   7.213   2.397  1.00  0.00    -0.273 OA
HETATM    4  C   UNL     1      60.742   5.467   1.898  1.00  0.00     0.125 C 
HETATM    5  C   UNL     1      59.215   7.389   1.928  1.00  0.00     0.125 C 
HETATM    6  C   UNL     1      58.332   6.729   2.981  1.00  0.00     0.020 C 
HETATM    7  C   UNL     1      59.875   4.733   2.923  1.00  0.00     0.020 C 
HETATM    8  C   UNL     1      58.421   5.208   2.881  1.00  0.00     0.003 C 
ENDROOT
BRANCH   1   9
HETATM    9  C   UNL     1      61.470   9.160   2.695  1.00  0.00     0.082 C 
HETATM   10  C   UNL     1      61.876  10.109   1.565  1.00  0.00     0.040 C 
HETATM   11  C   UNL     1      61.635  11.545   2.016  1.00  0.00     0.168 C 
HETATM   12  O   UNL     1      62.377  11.839   3.196  1.00  0.00    -0.391 OA
HETATM   13  C   UNL     1      62.009  11.007   4.297  1.00  0.00     0.168 C 
HETATM   14  C   UNL     1      62.236   9.540   3.962  1.00  0.00     0.040 C 
ENDBRANCH   1   9
TORSDOF 1
ENDMDL
