MODEL 1
REMARK VINA RESULT:      -4.5      0.000      0.000
REMARK  1 active torsions:
REMARK  status: ('A' for Active; 'I' for Inactive)
REMARK       I    between atoms: C_1  and  N_2 
REMARK    1  A    between atoms: C_1  and  C_4 
ROOT
HETATM    1  C   UNL     1      62.129   8.614   4.122  1.00  0.00     0.224 C 
HETATM    2  N   UNL     1      63.089   8.228   5.051  1.00  0.00    -0.348 N 
HETATM    3  O   UNL     1      61.054   8.007   4.045  1.00  0.00    -0.273 OA
HETATM    4  O   UNL     1      65.325   6.763   6.018  1.00  0.00    -0.388 OA
HETATM    5  C   UNL     1      64.358   8.907   5.316  1.00  0.00     0.152 C 
HETATM    6  C   UNL     1      62.895   7.010   5.842  1.00  0.00     0.152 C 
HETATM    7  C   UNL     1      65.527   7.920   5.193  1.00  0.00     0.187 C 
HETATM    8  C   UNL     1      64.104   6.086   5.664  1.00  0.00     0.187 C 
ENDROOT
BRANCH   1   9
HETATM    9  C   UNL     1      62.487   9.776   3.160  1.00  0.00     0.078 C 
HETATM   10  C   UNL     1      61.911  11.190   3.449  1.00  0.00     0.014 C 
HETATM   11  C   UNL     1      61.774  11.377   1.925  1.00  0.00     0.002 C 
HETATM   12  C   UNL     1      61.705   9.844   1.816  1.00  0.00     0.014 C 
ENDBRANCH   1   9
TORSDOF 1
ENDMDL
MODEL 2
REMARK VINA RESULT:      -4.4      2.183      3.048
REMARK  1 active torsions:
REMARK  status: ('A' for Active; 'I' for Inactive)
REMARK       I    between atoms: C_1  and  N_2 
REMARK    1  A    between atoms: C_1  and  C_4 
ROOT
HETATM    1  C   UNL     1      64.327   7.675   6.078  1.00  0.00     0.224 C 
HETATM    2  N   UNL     1      65.633   7.386   6.455  1.00  0.00    -0.348 N 
HETATM    3  O   UNL     1      63.378   7.332   6.794  1.00  0.00    -0.273 OA
HETATM    4  O   UNL     1      68.002   5.824   6.625  1.00  0.00    -0.388 OA
HETATM    5  C   UNL     1      66.849   7.810   5.760  1.00  0.00     0.152 C 
HETATM    6  C   UNL     1      65.888   6.545   7.628  1.00  0.00     0.152 C 
HETATM    7  C   UNL     1      67.734   6.597   5.445  1.00  0.00     0.187 C 
HETATM    8  C   UNL     1      66.778   5.364   7.227  1.00  0.00     0.187 C 
ENDROOT
BRANCH   1   9
HETATM    9  C   UNL     1      64.113   8.376   4.712  1.00  0.00     0.078 C 
HETATM   10  C   UNL     1      62.836   9.236   4.504  1.00  0.00     0.014 C 
HETATM   11  C   UNL     1      62.803   8.723   3.051  1.00  0.00     0.002 C 
HETATM   12  C   UNL     1      63.584   7.493   3.544  1.00  0.00     0.014 C 
ENDBRANCH   1   9
TORSDOF 1
ENDMDL
MODEL 3
REMARK VINA RESULT:      -4.3      1.695      4.924
REMARK  1 active torsions:
REMARK  status: ('A' for Active; 'I' for Inactive)
REMARK       I    between atoms: C_1  and  N_2 
REMARK    1  A    between atoms: C_1  and  C_4 
ROOT
HETATM    1  C   UNL     1      63.848   9.285   5.056  1.00  0.00     0.224 C 
HETATM    2  N   UNL     1      62.775   9.288   4.171  1.00  0.00    -0.348 N 
HETATM    3  O   UNL     1      64.093  10.281   5.746  1.00  0.00    -0.273 OA
HETATM    4  O   UNL     1      61.455   9.734   1.693  1.00  0.00    -0.388 OA
HETATM    5  C   UNL     1      62.313   8.156   3.367  1.00  0.00     0.152 C 
HETATM    6  C   UNL     1      62.019  10.522   3.941  1.00  0.00     0.152 C 
HETATM    7  C   UNL     1      62.242   8.549   1.885  1.00  0.00     0.187 C 
HETATM    8  C   UNL     1      61.997  10.838   2.442  1.00  0.00     0.187 C 
ENDROOT
BRANCH   1   9
HETATM    9  C   UNL     1      64.745   8.020   5.090  1.00  0.00     0.078 C 
HETATM   10  C   UNL     1      64.479   6.944   6.178  1.00  0.00     0.014 C 
HETATM   11  C   UNL     1      66.004   6.736   6.257  1.00  0.00     0.002 C 
HETATM   12  C   UNL     1      66.154   8.175   5.733  1.00  0.00     0.014 C 
ENDBRANCH   1   9
TORSDOF 1
ENDMDL
MODEL 4
REMARK VINA RESULT:      -4.3      2.116      3.040
REMARK  1 active torsions:
REMARK  status: ('A' for Active; 'I' for Inactive)
REMARK       I    between atoms: C_1  and  N_2 
REMARK    1  A    between atoms: C_1  and  C_4 
ROOT
HETATM    1  C   UNL     1      64.653   8.799   5.138  1.00  0.00     0.224 C 
HETATM    2  N   UNL     1      65.683   7.897   5.382  1.00  0.00    -0.348 N 
HETATM    3  O   UNL     1      64.595   9.866   5.760  1.00  0.00    -0.273 OA
HETATM    4  O   UNL     1      66.980   5.725   6.678  1.00  0.00    -0.388 OA
HETATM    5  C   UNL     1      65.930   6.648   4.661  1.00  0.00     0.152 C 
HETATM    6  C   UNL     1      66.623   8.139   6.481  1.00  0.00     0.152 C 
HETATM    7  C   UNL     1      66.017   5.473   5.643  1.00  0.00     0.187 C 
HETATM    8  C   UNL     1      66.649   6.920   7.409  1.00  0.00     0.187 C 
ENDROOT
BRANCH   1   9
HETATM    9  C   UNL     1      63.564   8.383   4.116  1.00  0.00     0.078 C 
HETATM   10  C   UNL     1      62.555   9.455   3.621  1.00  0.00     0.014 C 
HETATM   11  C   UNL     1      61.478   8.351   3.619  1.00  0.00     0.002 C 
HETATM   12  C   UNL     1      62.325   7.624   4.678  1.00  0.00     0.014 C 
ENDBRANCH   1   9
TORSDOF 1
ENDMDL
MODEL 5
REMARK VINA RESULT:      -4.2      1.814      2.961
REMARK  1 active torsions:
REMARK  status: ('A' for Active; 'I' for Inactive)
REMARK       I    between atoms: C_1  and  N_2 
REMARK    1  A    between atoms: C_1  and  C_4 
ROOT
HETATM    1  C   UNL     1      62.535   8.858   4.190  1.00  0.00     0.224 C 
HETATM    2  N   UNL     1      62.021   7.582   4.395  1.00  0.00    -0.348 N 
HETATM    3  O   UNL     1      63.592   9.202   4.732  1.00  0.00    -0.273 OA
HETATM    4  O   UNL     1      60.494   5.578   5.711  1.00  0.00    -0.388 OA
HETATM    5  C   UNL     1      60.840   7.011   3.748  1.00  0.00     0.152 C 
HETATM    6  C   UNL     1      62.650   6.688   5.370  1.00  0.00     0.152 C 
HETATM    7  C   UNL     1      59.855   6.488   4.802  1.00  0.00     0.187 C 
HETATM    8  C   UNL     1      61.600   6.212   6.380  1.00  0.00     0.187 C 
ENDROOT
BRANCH   1   9
HETATM    9  C   UNL     1      61.703   9.835   3.319  1.00  0.00     0.078 C 
HETATM   10  C   UNL     1      62.121  10.059   1.839  1.00  0.00     0.014 C 
HETATM   11  C   UNL     1      61.709  11.534   2.012  1.00  0.00     0.002 C 
HETATM   12  C   UNL     1      61.969  11.356   3.518  1.00  0.00     0.014 C 
ENDBRANCH   1   9
TORSDOF 1
ENDMDL
MODEL 6
REMARK VINA RESULT:      -3.6      2.490      3.674
REMARK  1 active torsions:
REMARK  status: ('A' for Active; 'I' for Inactive)
REMARK       I    between atoms: C_1  and  N_2 
REMARK    1  A    between atoms: C_1  and  C_4 
ROOT
HETATM    1  C   UNL     1      65.105   6.639   4.590  1.00  0.00     0.224 C 
HETATM    2  N   UNL     1      65.627   6.038   5.730  1.00  0.00    -0.348 N 
HETATM    3  O   UNL     1      65.661   6.494   3.495  1.00  0.00    -0.273 OA
HETATM    4  O   UNL     1      67.271   5.842   8.041  1.00  0.00    -0.388 OA
HETATM    5  C   UNL     1      65.028   6.045   7.065  1.00  0.00     0.152 C 
HETATM    6  C   UNL     1      66.921   5.352   5.668  1.00  0.00     0.152 C 
HETATM    7  C   UNL     1      66.034   6.569   8.098  1.00  0.00     0.187 C 
HETATM    8  C   UNL     1      67.860   5.932   6.731  1.00  0.00     0.187 C 
ENDROOT
BRANCH   1   9
HETATM    9  C   UNL     1      63.852   7.537   4.764  1.00  0.00     0.078 C 
HETATM   10  C   UNL     1      63.088   8.007   3.496  1.00  0.00     0.014 C 
HETATM   11  C   UNL     1      62.845   9.348   4.216  1.00  0.00     0.002 C 
HETATM   12  C   UNL     1      64.104   9.047   5.047  1.00  0.00     0.014 C 
ENDBRANCH   1   9
TORSDOF 1
ENDMDL
MODEL 7
REMARK VINA RESULT:      -3.6      2.832      6.021
REMARK  1 active torsions:
REMARK  status: ('A' for Active; 'I' for Inactive)
REMARK       I    between atoms: C_1  and  N_2 
REMARK    1  A    between atoms: C_1  and  C_4 
ROOT
HETATM    1  C   UNL     1      66.023   5.703   6.152  1.00  0.00     0.224 C 
HETATM    2  N   UNL     1      65.488   6.572   5.208  1.00  0.00    -0.348 N 
HETATM    3  O   UNL     1      65.737   4.500   6.130  1.00  0.00    -0.273 OA
HETATM    4  O   UNL     1      63.570   8.371   4.128  1.00  0.00    -0.388 OA
HETATM    5  C   UNL     1      65.810   7.991   5.057  1.00  0.00     0.152 C 
HETATM    6  C   UNL     1      64.465   6.097   4.272  1.00  0.00     0.152 C 
HETATM    7  C   UNL     1      64.529   8.835   5.090  1.00  0.00     0.187 C 
HETATM    8  C   UNL     1      63.226   6.993   4.368  1.00  0.00     0.187 C 
ENDROOT
BRANCH   1   9
HETATM    9  C   UNL     1      66.929   6.311   7.254  1.00  0.00     0.078 C 
HETATM   10  C   UNL     1      68.075   5.444   7.844  1.00  0.00     0.014 C 
HETATM   11  C   UNL     1      67.779   6.094   9.210  1.00  0.00     0.002 C 
HETATM   12  C   UNL     1      66.350   6.347   8.699  1.00  0.00     0.014 C 
ENDBRANCH   1   9
TORSDOF 1
ENDMDL
MODEL 8
REMARK VINA RESULT:      -3.6      2.126      4.753
REMARK  1 active torsions:
REMARK  status: ('A' for Active; 'I' for Inactive)
REMARK       I    between atoms: C_1  and  N_2 
REMARK    1  A    between atoms: C_1  and  C_4 
ROOT
HETATM    1  C   UNL     1      63.388   7.144   5.979  1.00  0.00     0.224 C 
HETATM    2  N   UNL     1      62.742   6.854   4.782  1.00  0.00    -0.348 N 
HETATM    3  O   UNL     1      62.765   7.651   6.920  1.00  0.00    -0.273 OA
HETATM    4  O   UNL     1      61.765   7.379   2.165  1.00  0.00    -0.388 OA
HETATM    5  C   UNL     1      63.326   6.173   3.626  1.00  0.00     0.152 C 
HETATM    6  C   UNL     1      61.356   7.281   4.577  1.00  0.00     0.152 C 
HETATM    7  C   UNL     1      63.142   7.020   2.360  1.00  0.00     0.187 C 
HETATM    8  C   UNL     1      61.261   8.115   3.295  1.00  0.00     0.187 C 
ENDROOT
BRANCH   1   9
HETATM    9  C   UNL     1      64.913   6.870   6.055  1.00  0.00     0.078 C 
HETATM   10  C   UNL     1      65.571   6.689   7.451  1.00  0.00     0.014 C 
HETATM   11  C   UNL     1      66.804   7.430   6.896  1.00  0.00     0.002 C 
HETATM   12  C   UNL     1      65.857   8.095   5.882  1.00  0.00     0.014 C 
ENDBRANCH   1   9
TORSDOF 1
ENDMDL
MODEL 9
REMARK VINA RESULT:      -3.6      3.044      4.859
REMARK  1 active torsions:
REMARK  status: ('A' for Active; 'I' for Inactive)
REMARK       I    between atoms: C_1  and  N_2 
REMARK    1  A    between atoms: C_1  and  C_4 
ROOT
HETATM    1  C   UNL     1      61.447   8.962   1.986  1.00  0.00     0.224 C 
HETATM    2  N   UNL     1      60.444   8.062   1.645  1.00  0.00    -0.348 N 
HETATM    3  O   UNL     1      62.141   9.489   1.108  1.00  0.00    -0.273 OA
HETATM    4  O   UNL     1      59.336   5.512   1.051  1.00  0.00    -0.388 OA
HETATM    5  C   UNL     1      59.491   7.439   2.564  1.00  0.00     0.152 C 
HETATM    6  C   UNL     1      60.300   7.618   0.256  1.00  0.00     0.152 C 
HETATM    7  C   UNL     1      59.528   5.912   2.417  1.00  0.00     0.187 C 
HETATM    8  C   UNL     1      60.345   6.087   0.200  1.00  0.00     0.187 C 
ENDROOT
BRANCH   1   9
HETATM    9  C   UNL     1      61.695   9.222   3.495  1.00  0.00     0.078 C 
HETATM   10  C   UNL     1      61.990  10.673   3.965  1.00  0.00     0.014 C 
HETATM   11  C   UNL     1      62.974  10.074   4.989  1.00  0.00     0.002 C 
HETATM   12  C   UNL     1      63.106   8.865   4.047  1.00  0.00     0.014 C 
ENDBRANCH   1   9
TORSDOF 1
ENDMDL
