MODEL 1
REMARK VINA RESULT:      -4.3      0.000      0.000
REMARK  1 active torsions:
REMARK  status: ('A' for Active; 'I' for Inactive)
REMARK    1  A    between atoms: C_1  and  C_7 
REMARK       I    between atoms: C_7  and  N_10 
ROOT
HETATM    1  C   UNL     1      63.225   9.170   4.383  1.00  0.00     0.088 A 
HETATM    2  C   UNL     1      62.871   8.550   3.205  1.00  0.00     0.137 A 
HETATM    3  N   UNL     1      61.599  10.412   3.317  1.00  0.00    -0.308 N 
ATOM      4  HN  UNL     1      60.921  11.139   3.092  1.00  0.00     0.186 HD
HETATM    5  N   UNL     1      61.909   9.309   2.605  1.00  0.00    -0.285 N 
HETATM    6  C   UNL     1      62.396  10.323   4.390  1.00  0.00     0.127 A 
HETATM    7 CL   UNL     1      63.403   7.112   2.456  1.00  0.00    -0.062 Cl
HETATM    8  C   UNL     1      61.234   9.053   1.355  1.00  0.00     0.179 C 
ENDROOT
BRANCH   1   9
HETATM    9  C   UNL     1      64.194   8.783   5.395  1.00  0.00     0.255 C 
HETATM   10  O   UNL     1      65.085   9.542   5.764  1.00  0.00    -0.268 OA
HETATM   11  N   UNL     1      64.028   7.512   5.896  1.00  0.00    -0.361 N 
HETATM   12  C   UNL     1      64.867   6.917   6.902  1.00  0.00     0.149 C 
HETATM   13  H   UNL     1      63.284   6.974   5.542  1.00  0.00     0.162 HD
ENDBRANCH   1   9
TORSDOF 1
ENDMDL
MODEL 2
REMARK VINA RESULT:      -4.3      2.111      2.367
REMARK  1 active torsions:
REMARK  status: ('A' for Active; 'I' for Inactive)
REMARK    1  A    between atoms: C_1  and  C_7 
REMARK       I    between atoms: C_7  and  N_10 
ROOT
HETATM    1  C   UNL     1      62.819   8.540   4.700  1.00  0.00     0.088 A 
HETATM    2  C   UNL     1      62.606   9.887   4.506  1.00  0.00     0.137 A 
HETATM    3  N   UNL     1      62.067   8.901   2.549  1.00  0.00    -0.308 N 
ATOM      4  HN  UNL     1      61.764   8.755   1.587  1.00  0.00     0.186 HD
HETATM    5  N   UNL     1      62.166  10.063   3.227  1.00  0.00    -0.285 N 
HETATM    6  C   UNL     1      62.463   7.985   3.442  1.00  0.00     0.127 A 
HETATM    7 CL   UNL     1      62.793  11.240   5.529  1.00  0.00    -0.062 Cl
HETATM    8  C   UNL     1      61.818  11.302   2.575  1.00  0.00     0.179 C 
ENDROOT
BRANCH   1   9
HETATM    9  C   UNL     1      63.287   7.821   5.873  1.00  0.00     0.255 C 
HETATM   10  O   UNL     1      62.626   7.762   6.905  1.00  0.00    -0.268 OA
HETATM   11  N   UNL     1      64.517   7.220   5.727  1.00  0.00    -0.361 N 
HETATM   12  C   UNL     1      65.178   6.458   6.753  1.00  0.00     0.149 C 
HETATM   13  H   UNL     1      64.975   7.318   4.862  1.00  0.00     0.162 HD
ENDBRANCH   1   9
TORSDOF 1
ENDMDL
MODEL 3
REMARK VINA RESULT:      -4.3      2.002      2.370
REMARK  1 active torsions:
REMARK  status: ('A' for Active; 'I' for Inactive)
REMARK    1  A    between atoms: C_1  and  C_7 
REMARK       I    between atoms: C_7  and  N_10 
ROOT
HETATM    1  C   UNL     1      64.298   8.445   4.974  1.00  0.00     0.088 A 
HETATM    2  C   UNL     1      63.440   9.501   4.762  1.00  0.00     0.137 A 
HETATM    3  N   UNL     1      63.147   8.120   3.001  1.00  0.00    -0.308 N 
ATOM      4  HN  UNL     1      62.807   7.720   2.127  1.00  0.00     0.186 HD
HETATM    5  N   UNL     1      62.780   9.277   3.590  1.00  0.00    -0.285 N 
HETATM    6  C   UNL     1      64.064   7.622   3.840  1.00  0.00     0.127 A 
HETATM    7 CL   UNL     1      63.111  10.914   5.661  1.00  0.00    -0.062 Cl
HETATM    8  C   UNL     1      61.786  10.114   2.961  1.00  0.00     0.179 C 
ENDROOT
BRANCH   1   9
HETATM    9  C   UNL     1      65.227   8.191   6.063  1.00  0.00     0.255 C 
HETATM   10  O   UNL     1      66.146   8.961   6.325  1.00  0.00    -0.268 OA
HETATM   11  N   UNL     1      64.989   7.031   6.764  1.00  0.00    -0.361 N 
HETATM   12  C   UNL     1      65.778   6.576   7.878  1.00  0.00     0.149 C 
HETATM   13  H   UNL     1      64.228   6.474   6.484  1.00  0.00     0.162 HD
ENDBRANCH   1   9
TORSDOF 1
ENDMDL
MODEL 4
REMARK VINA RESULT:      -4.1      3.104      4.743
REMARK  1 active torsions:
REMARK  status: ('A' for Active; 'I' for Inactive)
REMARK    1  A    between atoms: C_1  and  C_7 
REMARK       I    between atoms: C_7  and  N_10 
ROOT
HETATM    1  C   UNL     1      61.716   9.049   2.903  1.00  0.00     0.088 A 
HETATM    2  C   UNL     1      61.996  10.290   3.431  1.00  0.00     0.137 A 
HETATM    3  N   UNL     1      62.624   8.803   5.009  1.00  0.00    -0.308 N 
ATOM      4  HN  UNL     1      62.985   8.398   5.873  1.00  0.00     0.186 HD
HETATM    5  N   UNL     1      62.528  10.106   4.674  1.00  0.00    -0.285 N 
HETATM    6  C   UNL     1      62.132   8.169   3.937  1.00  0.00     0.127 A 
HETATM    7 CL   UNL     1      61.796  11.871   2.823  1.00  0.00    -0.062 Cl
HETATM    8  C   UNL     1      62.968  11.118   5.605  1.00  0.00     0.179 C 
ENDROOT
BRANCH   1   9
HETATM    9  C   UNL     1      61.142   8.681   1.620  1.00  0.00     0.255 C 
HETATM   10  O   UNL     1      61.753   8.836   0.567  1.00  0.00    -0.268 OA
HETATM   11  N   UNL     1      59.873   8.151   1.687  1.00  0.00    -0.361 N 
HETATM   12  C   UNL     1      59.109   7.719   0.547  1.00  0.00     0.149 C 
HETATM   13  H   UNL     1      59.461   8.062   2.576  1.00  0.00     0.162 HD
ENDBRANCH   1   9
TORSDOF 1
ENDMDL
MODEL 5
REMARK VINA RESULT:      -4.0      2.224      4.061
REMARK  1 active torsions:
REMARK  status: ('A' for Active; 'I' for Inactive)
REMARK    1  A    between atoms: C_1  and  C_7 
REMARK       I    between atoms: C_7  and  N_10 
ROOT
HETATM    1  C   UNL     1      62.514   9.300   4.372  1.00  0.00     0.088 A 
HETATM    2  C   UNL     1      61.807   8.122   4.272  1.00  0.00     0.137 A 
HETATM    3  N   UNL     1      63.739   7.583   5.306  1.00  0.00    -0.308 N 
ATOM      4  HN  UNL     1      64.478   7.054   5.768  1.00  0.00     0.186 HD
HETATM    5  N   UNL     1      62.561   7.132   4.830  1.00  0.00    -0.285 N 
HETATM    6  C   UNL     1      63.707   8.892   5.026  1.00  0.00     0.127 A 
HETATM    7 CL   UNL     1      60.276   7.751   3.616  1.00  0.00    -0.062 Cl
HETATM    8  C   UNL     1      62.231   5.731   4.950  1.00  0.00     0.179 C 
ENDROOT
BRANCH   1   9
HETATM    9  C   UNL     1      62.170  10.643   3.936  1.00  0.00     0.255 C 
HETATM   10  O   UNL     1      62.122  11.587   4.718  1.00  0.00    -0.268 OA
HETATM   11  N   UNL     1      61.909  10.762   2.590  1.00  0.00    -0.361 N 
HETATM   12  C   UNL     1      61.548  11.992   1.936  1.00  0.00     0.149 C 
HETATM   13  H   UNL     1      61.974   9.951   2.037  1.00  0.00     0.162 HD
ENDBRANCH   1   9
TORSDOF 1
ENDMDL
MODEL 6
REMARK VINA RESULT:      -3.8      2.713      5.189
REMARK  1 active torsions:
REMARK  status: ('A' for Active; 'I' for Inactive)
REMARK    1  A    between atoms: C_1  and  C_7 
REMARK       I    between atoms: C_7  and  N_10 
ROOT
HETATM    1  C   UNL     1      65.236   7.832   5.927  1.00  0.00     0.088 A 
HETATM    2  C   UNL     1      65.137   6.585   6.503  1.00  0.00     0.137 A 
HETATM    3  N   UNL     1      67.154   7.383   7.127  1.00  0.00    -0.308 N 
ATOM      4  HN  UNL     1      68.076   7.464   7.555  1.00  0.00     0.186 HD
HETATM    5  N   UNL     1      66.286   6.353   7.200  1.00  0.00    -0.285 N 
HETATM    6  C   UNL     1      66.516   8.273   6.356  1.00  0.00     0.127 A 
HETATM    7 CL   UNL     1      63.909   5.400   6.478  1.00  0.00    -0.062 Cl
HETATM    8  C   UNL     1      66.635   5.177   7.962  1.00  0.00     0.179 C 
ENDROOT
BRANCH   1   9
HETATM    9  C   UNL     1      64.298   8.557   5.085  1.00  0.00     0.255 C 
HETATM   10  O   UNL     1      64.020   8.181   3.951  1.00  0.00    -0.268 OA
HETATM   11  N   UNL     1      63.756   9.682   5.664  1.00  0.00    -0.361 N 
HETATM   12  C   UNL     1      62.809  10.553   5.020  1.00  0.00     0.149 C 
HETATM   13  H   UNL     1      64.036   9.906   6.580  1.00  0.00     0.162 HD
ENDBRANCH   1   9
TORSDOF 1
ENDMDL
MODEL 7
REMARK VINA RESULT:      -3.8      1.643      1.859
REMARK  1 active torsions:
REMARK  status: ('A' for Active; 'I' for Inactive)
REMARK    1  A    between atoms: C_1  and  C_7 
REMARK       I    between atoms: C_7  and  N_10 
ROOT
HETATM    1  C   UNL     1      64.618   8.168   5.012  1.00  0.00     0.088 A 
HETATM    2  C   UNL     1      64.278   7.508   3.852  1.00  0.00     0.137 A 
HETATM    3  N   UNL     1      62.855   9.255   3.995  1.00  0.00    -0.308 N 
ATOM      4  HN  UNL     1      62.109   9.919   3.788  1.00  0.00     0.186 HD
HETATM    5  N   UNL     1      63.234   8.175   3.280  1.00  0.00    -0.285 N 
HETATM    6  C   UNL     1      63.693   9.246   5.040  1.00  0.00     0.127 A 
HETATM    7 CL   UNL     1      64.906   6.114   3.095  1.00  0.00    -0.062 Cl
HETATM    8  C   UNL     1      62.541   7.849   2.056  1.00  0.00     0.179 C 
ENDROOT
BRANCH   1   9
HETATM    9  C   UNL     1      65.651   7.877   5.992  1.00  0.00     0.255 C 
HETATM   10  O   UNL     1      66.790   8.322   5.886  1.00  0.00    -0.268 OA
HETATM   11  N   UNL     1      65.247   7.072   7.033  1.00  0.00    -0.361 N 
HETATM   12  C   UNL     1      66.097   6.652   8.115  1.00  0.00     0.149 C 
HETATM   13  H   UNL     1      64.313   6.763   7.037  1.00  0.00     0.162 HD
ENDBRANCH   1   9
TORSDOF 1
ENDMDL
MODEL 8
REMARK VINA RESULT:      -3.6      2.968      5.551
REMARK  1 active torsions:
REMARK  status: ('A' for Active; 'I' for Inactive)
REMARK    1  A    between atoms: C_1  and  C_7 
REMARK       I    between atoms: C_7  and  N_10 
ROOT
HETATM    1  C   UNL     1      64.594   6.739   6.515  1.00  0.00     0.088 A 
HETATM    2  C   UNL     1      65.940   6.936   6.726  1.00  0.00     0.137 A 
HETATM    3  N   UNL     1      65.645   4.699   6.743  1.00  0.00    -0.308 N 
ATOM      4  HN  UNL     1      65.824   3.697   6.799  1.00  0.00     0.186 HD
HETATM    5  N   UNL     1      66.528   5.712   6.857  1.00  0.00    -0.285 N 
HETATM    6  C   UNL     1      64.479   5.324   6.537  1.00  0.00     0.127 A 
HETATM    7 CL   UNL     1      66.893   8.348   6.836  1.00  0.00    -0.062 Cl
HETATM    8  C   UNL     1      67.922   5.422   7.095  1.00  0.00     0.179 C 
ENDROOT
BRANCH   1   9
HETATM    9  C   UNL     1      63.522   7.701   6.317  1.00  0.00     0.255 C 
HETATM   10  O   UNL     1      62.457   7.619   6.920  1.00  0.00    -0.268 OA
HETATM   11  N   UNL     1      63.802   8.696   5.408  1.00  0.00    -0.361 N 
HETATM   12  C   UNL     1      62.893   9.753   5.052  1.00  0.00     0.149 C 
HETATM   13  H   UNL     1      64.685   8.684   4.973  1.00  0.00     0.162 HD
ENDBRANCH   1   9
TORSDOF 1
ENDMDL
MODEL 9
REMARK VINA RESULT:      -3.6      2.750      4.252
REMARK  1 active torsions:
REMARK  status: ('A' for Active; 'I' for Inactive)
REMARK    1  A    between atoms: C_1  and  C_7 
REMARK       I    between atoms: C_7  and  N_10 
ROOT
HETATM    1  C   UNL     1      62.253   8.383   3.753  1.00  0.00     0.088 A 
HETATM    2  C   UNL     1      62.309   9.748   3.929  1.00  0.00     0.137 A 
HETATM    3  N   UNL     1      63.074   8.856   5.856  1.00  0.00    -0.308 N 
ATOM      4  HN  UNL     1      63.446   8.759   6.800  1.00  0.00     0.186 HD
HETATM    5  N   UNL     1      62.795   9.990   5.181  1.00  0.00    -0.285 N 
HETATM    6  C   UNL     1      62.744   7.889   4.990  1.00  0.00     0.127 A 
HETATM    7 CL   UNL     1      61.900  11.057   2.914  1.00  0.00    -0.062 Cl
HETATM    8  C   UNL     1      63.022  11.270   5.808  1.00  0.00     0.179 C 
ENDROOT
BRANCH   1   9
HETATM    9  C   UNL     1      61.813   7.600   2.610  1.00  0.00     0.255 C 
HETATM   10  O   UNL     1      60.878   6.808   2.688  1.00  0.00    -0.268 OA
HETATM   11  N   UNL     1      62.523   7.820   1.452  1.00  0.00    -0.361 N 
HETATM   12  C   UNL     1      62.266   7.158   0.201  1.00  0.00     0.149 C 
HETATM   13  H   UNL     1      63.256   8.475   1.482  1.00  0.00     0.162 HD
ENDBRANCH   1   9
TORSDOF 1
ENDMDL
