MODEL 1
REMARK VINA RESULT:      -4.7      0.000      0.000
REMARK  2 active torsions:
REMARK  status: ('A' for Active; 'I' for Inactive)
REMARK    1  A    between atoms: C_1  and  S_2 
REMARK    2  A    between atoms: S_2  and  N_8 
ROOT
HETATM    1  C   UNL     1      62.924   8.367   4.543  1.00  0.00     0.161 A 
HETATM    2  N   UNL     1      62.774   7.920   3.238  1.00  0.00    -0.335 N 
ATOM      3  HN  UNL     1      62.926   6.972   2.892  1.00  0.00     0.168 HD
HETATM    4  C   UNL     1      62.613   9.707   4.624  1.00  0.00     0.135 A 
HETATM    5  C   UNL     1      62.395   8.970   2.537  1.00  0.00     0.079 A 
HETATM    6  N   UNL     1      62.267  10.071   3.353  1.00  0.00    -0.348 N 
HETATM    7  C   UNL     1      61.838  11.390   2.954  1.00  0.00     0.156 C 
HETATM    8  C   UNL     1      62.149   8.973   1.071  1.00  0.00     0.089 C 
ENDROOT
BRANCH   1   9
HETATM    9  S   UNL     1      63.451   7.349   5.865  1.00  0.00     0.260 S 
HETATM   10  O   UNL     1      62.603   7.745   6.968  1.00  0.00    -0.204 OA
HETATM   11  O   UNL     1      63.400   6.008   5.313  1.00  0.00    -0.204 OA
BRANCH   9  12
HETATM   12  N   UNL     1      65.075   7.723   6.257  1.00  0.00    -0.213 NA
HETATM   13  C   UNL     1      65.674   6.844   7.276  1.00  0.00     0.129 C 
HETATM   14  C   UNL     1      65.959   7.930   5.091  1.00  0.00     0.129 C 
ENDBRANCH   9  12
ENDBRANCH   1   9
TORSDOF 2
ENDMDL
MODEL 2
REMARK VINA RESULT:      -4.7      1.988      2.647
REMARK  2 active torsions:
REMARK  status: ('A' for Active; 'I' for Inactive)
REMARK    1  A    between atoms: C_1  and  S_2 
REMARK    2  A    between atoms: S_2  and  N_8 
ROOT
HETATM    1  C   UNL     1      64.320   8.420   5.155  1.00  0.00     0.161 A 
HETATM    2  N   UNL     1      63.708   9.648   5.366  1.00  0.00    -0.335 N 
ATOM      3  HN  UNL     1      63.847  10.275   6.158  1.00  0.00     0.168 HD
HETATM    4  C   UNL     1      63.890   7.874   3.965  1.00  0.00     0.135 A 
HETATM    5  C   UNL     1      62.912   9.837   4.332  1.00  0.00     0.079 A 
HETATM    6  N   UNL     1      63.012   8.786   3.450  1.00  0.00    -0.348 N 
HETATM    7  C   UNL     1      62.322   8.655   2.190  1.00  0.00     0.156 C 
HETATM    8  C   UNL     1      62.020  11.013   4.148  1.00  0.00     0.089 C 
ENDROOT
BRANCH   1   9
HETATM    9  S   UNL     1      65.455   7.695   6.272  1.00  0.00     0.260 S 
HETATM   10  O   UNL     1      66.375   8.769   6.578  1.00  0.00    -0.204 OA
HETATM   11  O   UNL     1      64.610   7.108   7.295  1.00  0.00    -0.204 OA
BRANCH   9  12
HETATM   12  N   UNL     1      66.312   6.445   5.478  1.00  0.00    -0.213 NA
HETATM   13  C   UNL     1      67.775   6.618   5.472  1.00  0.00     0.129 C 
HETATM   14  C   UNL     1      65.902   5.077   5.860  1.00  0.00     0.129 C 
ENDBRANCH   9  12
ENDBRANCH   1   9
TORSDOF 2
ENDMDL
MODEL 3
REMARK VINA RESULT:      -4.6      2.088      3.051
REMARK  2 active torsions:
REMARK  status: ('A' for Active; 'I' for Inactive)
REMARK    1  A    between atoms: C_1  and  S_2 
REMARK    2  A    between atoms: S_2  and  N_8 
ROOT
HETATM    1  C   UNL     1      64.773   8.293   5.151  1.00  0.00     0.161 A 
HETATM    2  N   UNL     1      64.055   9.459   5.373  1.00  0.00    -0.335 N 
ATOM      3  HN  UNL     1      64.193  10.131   6.128  1.00  0.00     0.168 HD
HETATM    4  C   UNL     1      64.305   7.654   4.024  1.00  0.00     0.135 A 
HETATM    5  C   UNL     1      63.157   9.519   4.409  1.00  0.00     0.079 A 
HETATM    6  N   UNL     1      63.293   8.447   3.558  1.00  0.00    -0.348 N 
HETATM    7  C   UNL     1      62.516   8.190   2.370  1.00  0.00     0.156 C 
HETATM    8  C   UNL     1      62.134  10.588   4.265  1.00  0.00     0.089 C 
ENDROOT
BRANCH   1   9
HETATM    9  S   UNL     1      66.070   7.738   6.187  1.00  0.00     0.260 S 
HETATM   10  O   UNL     1      66.891   6.929   5.312  1.00  0.00    -0.204 OA
HETATM   11  O   UNL     1      66.578   8.955   6.790  1.00  0.00    -0.204 OA
BRANCH   9  12
HETATM   12  N   UNL     1      65.426   6.738   7.417  1.00  0.00    -0.213 NA
HETATM   13  C   UNL     1      64.858   5.467   6.935  1.00  0.00     0.129 C 
HETATM   14  C   UNL     1      66.306   6.559   8.590  1.00  0.00     0.129 C 
ENDBRANCH   9  12
ENDBRANCH   1   9
TORSDOF 2
ENDMDL
MODEL 4
REMARK VINA RESULT:      -4.2      2.135      5.756
REMARK  2 active torsions:
REMARK  status: ('A' for Active; 'I' for Inactive)
REMARK    1  A    between atoms: C_1  and  S_2 
REMARK    2  A    between atoms: S_2  and  N_8 
ROOT
HETATM    1  C   UNL     1      65.261   6.823   6.520  1.00  0.00     0.161 A 
HETATM    2  N   UNL     1      65.780   7.036   7.789  1.00  0.00    -0.335 N 
ATOM      3  HN  UNL     1      65.446   7.701   8.486  1.00  0.00     0.168 HD
HETATM    4  C   UNL     1      65.970   5.831   5.878  1.00  0.00     0.135 A 
HETATM    5  C   UNL     1      66.794   6.201   7.910  1.00  0.00     0.079 A 
HETATM    6  N   UNL     1      66.926   5.438   6.772  1.00  0.00    -0.348 N 
HETATM    7  C   UNL     1      67.895   4.394   6.546  1.00  0.00     0.156 C 
HETATM    8  C   UNL     1      67.679   6.101   9.100  1.00  0.00     0.089 C 
ENDROOT
BRANCH   1   9
HETATM    9  S   UNL     1      63.910   7.719   5.860  1.00  0.00     0.260 S 
HETATM   10  O   UNL     1      62.872   7.565   6.857  1.00  0.00    -0.204 OA
HETATM   11  O   UNL     1      64.474   9.018   5.549  1.00  0.00    -0.204 OA
BRANCH   9  12
HETATM   12  N   UNL     1      63.393   6.977   4.407  1.00  0.00    -0.213 NA
HETATM   13  C   UNL     1      62.237   6.077   4.560  1.00  0.00     0.129 C 
HETATM   14  C   UNL     1      63.250   7.900   3.262  1.00  0.00     0.129 C 
ENDBRANCH   9  12
ENDBRANCH   1   9
TORSDOF 2
ENDMDL
MODEL 5
REMARK VINA RESULT:      -4.1      1.611      2.259
REMARK  2 active torsions:
REMARK  status: ('A' for Active; 'I' for Inactive)
REMARK    1  A    between atoms: C_1  and  S_2 
REMARK    2  A    between atoms: S_2  and  N_8 
ROOT
HETATM    1  C   UNL     1      62.930   8.062   4.448  1.00  0.00     0.161 A 
HETATM    2  N   UNL     1      63.080   8.915   3.364  1.00  0.00    -0.335 N 
ATOM      3  HN  UNL     1      63.885   9.504   3.152  1.00  0.00     0.168 HD
HETATM    4  C   UNL     1      61.712   7.423   4.385  1.00  0.00     0.135 A 
HETATM    5  C   UNL     1      61.968   8.808   2.664  1.00  0.00     0.079 A 
HETATM    6  N   UNL     1      61.120   7.893   3.246  1.00  0.00    -0.348 N 
HETATM    7  C   UNL     1      59.829   7.483   2.751  1.00  0.00     0.156 C 
HETATM    8  C   UNL     1      61.662   9.574   1.427  1.00  0.00     0.089 C 
ENDROOT
BRANCH   1   9
HETATM    9  S   UNL     1      64.134   7.867   5.704  1.00  0.00     0.260 S 
HETATM   10  O   UNL     1      64.935   9.067   5.606  1.00  0.00    -0.204 OA
HETATM   11  O   UNL     1      63.353   7.573   6.891  1.00  0.00    -0.204 OA
BRANCH   9  12
HETATM   12  N   UNL     1      65.119   6.515   5.341  1.00  0.00    -0.213 NA
HETATM   13  C   UNL     1      65.644   6.496   3.965  1.00  0.00     0.129 C 
HETATM   14  C   UNL     1      66.156   6.220   6.351  1.00  0.00     0.129 C 
ENDBRANCH   9  12
ENDBRANCH   1   9
TORSDOF 2
ENDMDL
MODEL 6
REMARK VINA RESULT:      -3.9      2.045      2.839
REMARK  2 active torsions:
REMARK  status: ('A' for Active; 'I' for Inactive)
REMARK    1  A    between atoms: C_1  and  S_2 
REMARK    2  A    between atoms: S_2  and  N_8 
ROOT
HETATM    1  C   UNL     1      63.458   8.121   4.902  1.00  0.00     0.161 A 
HETATM    2  N   UNL     1      63.221   9.377   5.442  1.00  0.00    -0.335 N 
ATOM      3  HN  UNL     1      63.437   9.690   6.388  1.00  0.00     0.168 HD
HETATM    4  C   UNL     1      63.043   8.083   3.588  1.00  0.00     0.135 A 
HETATM    5  C   UNL     1      62.659  10.083   4.481  1.00  0.00     0.079 A 
HETATM    6  N   UNL     1      62.553   9.333   3.332  1.00  0.00    -0.348 N 
HETATM    7  C   UNL     1      62.025   9.775   2.064  1.00  0.00     0.156 C 
HETATM    8  C   UNL     1      62.192  11.488   4.617  1.00  0.00     0.089 C 
ENDROOT
BRANCH   1   9
HETATM    9  S   UNL     1      64.169   6.797   5.798  1.00  0.00     0.260 S 
HETATM   10  O   UNL     1      65.428   6.559   5.125  1.00  0.00    -0.204 OA
HETATM   11  O   UNL     1      64.119   7.243   7.177  1.00  0.00    -0.204 OA
BRANCH   9  12
HETATM   12  N   UNL     1      63.185   5.406   5.631  1.00  0.00    -0.213 NA
HETATM   13  C   UNL     1      63.888   4.131   5.853  1.00  0.00     0.129 C 
HETATM   14  C   UNL     1      61.893   5.476   6.345  1.00  0.00     0.129 C 
ENDBRANCH   9  12
ENDBRANCH   1   9
TORSDOF 2
ENDMDL
MODEL 7
REMARK VINA RESULT:      -3.9      2.045      5.273
REMARK  2 active torsions:
REMARK  status: ('A' for Active; 'I' for Inactive)
REMARK    1  A    between atoms: C_1  and  S_2 
REMARK    2  A    between atoms: S_2  and  N_8 
ROOT
HETATM    1  C   UNL     1      65.009   6.873   6.042  1.00  0.00     0.161 A 
HETATM    2  N   UNL     1      65.640   6.105   5.074  1.00  0.00    -0.335 N 
ATOM      3  HN  UNL     1      65.494   6.146   4.065  1.00  0.00     0.168 HD
HETATM    4  C   UNL     1      65.480   6.540   7.293  1.00  0.00     0.135 A 
HETATM    5  C   UNL     1      66.465   5.310   5.725  1.00  0.00     0.079 A 
HETATM    6  N   UNL     1      66.409   5.561   7.077  1.00  0.00    -0.348 N 
HETATM    7  C   UNL     1      67.191   4.917   8.103  1.00  0.00     0.156 C 
HETATM    8  C   UNL     1      67.330   4.278   5.094  1.00  0.00     0.089 C 
ENDROOT
BRANCH   1   9
HETATM    9  S   UNL     1      63.784   8.072   5.685  1.00  0.00     0.260 S 
HETATM   10  O   UNL     1      62.849   7.948   6.782  1.00  0.00    -0.204 OA
HETATM   11  O   UNL     1      64.542   9.290   5.470  1.00  0.00    -0.204 OA
BRANCH   9  12
HETATM   12  N   UNL     1      62.986   7.652   4.230  1.00  0.00    -0.213 NA
HETATM   13  C   UNL     1      61.712   6.937   4.419  1.00  0.00     0.129 C 
HETATM   14  C   UNL     1      62.885   8.748   3.245  1.00  0.00     0.129 C 
ENDBRANCH   9  12
ENDBRANCH   1   9
TORSDOF 2
ENDMDL
MODEL 8
REMARK VINA RESULT:      -3.8      1.857      4.529
REMARK  2 active torsions:
REMARK  status: ('A' for Active; 'I' for Inactive)
REMARK    1  A    between atoms: C_1  and  S_2 
REMARK    2  A    between atoms: S_2  and  N_8 
ROOT
HETATM    1  C   UNL     1      64.461   7.499   5.039  1.00  0.00     0.161 A 
HETATM    2  N   UNL     1      64.776   6.634   4.001  1.00  0.00    -0.335 N 
ATOM      3  HN  UNL     1      64.154   6.311   3.260  1.00  0.00     0.168 HD
HETATM    4  C   UNL     1      65.568   7.712   5.832  1.00  0.00     0.135 A 
HETATM    5  C   UNL     1      66.045   6.316   4.168  1.00  0.00     0.079 A 
HETATM    6  N   UNL     1      66.564   6.969   5.262  1.00  0.00    -0.348 N 
HETATM    7  C   UNL     1      67.924   6.900   5.738  1.00  0.00     0.156 C 
HETATM    8  C   UNL     1      66.808   5.375   3.307  1.00  0.00     0.089 C 
ENDROOT
BRANCH   1   9
HETATM    9  S   UNL     1      62.870   8.186   5.283  1.00  0.00     0.260 S 
HETATM   10  O   UNL     1      62.002   7.339   4.494  1.00  0.00    -0.204 OA
HETATM   11  O   UNL     1      62.743   8.267   6.726  1.00  0.00    -0.204 OA
BRANCH   9  12
HETATM   12  N   UNL     1      62.830   9.770   4.635  1.00  0.00    -0.213 NA
HETATM   13  C   UNL     1      61.717  10.020   3.703  1.00  0.00     0.129 C 
HETATM   14  C   UNL     1      62.992  10.848   5.632  1.00  0.00     0.129 C 
ENDBRANCH   9  12
ENDBRANCH   1   9
TORSDOF 2
ENDMDL
MODEL 9
REMARK VINA RESULT:      -3.8      2.796      3.773
REMARK  2 active torsions:
REMARK  status: ('A' for Active; 'I' for Inactive)
REMARK    1  A    between atoms: C_1  and  S_2 
REMARK    2  A    between atoms: S_2  and  N_8 
ROOT
HETATM    1  C   UNL     1      65.296   7.442   5.901  1.00  0.00     0.161 A 
HETATM    2  N   UNL     1      64.782   8.400   5.039  1.00  0.00    -0.335 N 
ATOM      3  HN  UNL     1      65.309   9.082   4.494  1.00  0.00     0.168 HD
HETATM    4  C   UNL     1      64.274   6.694   6.445  1.00  0.00     0.135 A 
HETATM    5  C   UNL     1      63.472   8.248   5.070  1.00  0.00     0.079 A 
HETATM    6  N   UNL     1      63.129   7.206   5.900  1.00  0.00    -0.348 N 
HETATM    7  C   UNL     1      61.796   6.718   6.159  1.00  0.00     0.156 C 
HETATM    8  C   UNL     1      62.500   9.089   4.324  1.00  0.00     0.089 C 
ENDROOT
BRANCH   1   9
HETATM    9  S   UNL     1      67.003   7.254   6.238  1.00  0.00     0.260 S 
HETATM   10  O   UNL     1      67.616   8.376   5.561  1.00  0.00    -0.204 OA
HETATM   11  O   UNL     1      67.060   7.116   7.680  1.00  0.00    -0.204 OA
BRANCH   9  12
HETATM   12  N   UNL     1      67.566   5.804   5.521  1.00  0.00    -0.213 NA
HETATM   13  C   UNL     1      67.497   4.623   6.400  1.00  0.00     0.129 C 
HETATM   14  C   UNL     1      67.036   5.540   4.168  1.00  0.00     0.129 C 
ENDBRANCH   9  12
ENDBRANCH   1   9
TORSDOF 2
ENDMDL
