MODEL 1
REMARK VINA RESULT:      -3.9      0.000      0.000
REMARK  2 active torsions:
REMARK  status: ('A' for Active; 'I' for Inactive)
REMARK    1  A    between atoms: S_1  and  C_2 
REMARK    2  A    between atoms: S_1  and  N_3 
ROOT
HETATM    1  S   UNL     1      64.891   7.933   5.890  1.00  0.00     0.260 S 
HETATM    2  O   UNL     1      64.085   7.322   6.924  1.00  0.00    -0.200 OA
HETATM    3  O   UNL     1      65.824   9.001   6.176  1.00  0.00    -0.200 OA
ENDROOT
BRANCH   1   4
HETATM    4  C   UNL     1      63.727   8.660   4.820  1.00  0.00     0.086 A 
HETATM    5  C   UNL     1      63.363   8.120   3.549  1.00  0.00     0.033 A 
HETATM    6  C   UNL     1      62.442   8.915   2.899  1.00  0.00     0.051 A 
HETATM    7  S   UNL     1      62.018  10.294   3.821  1.00  0.00    -0.112 SA
HETATM    8  C   UNL     1      63.057   9.832   5.099  1.00  0.00     0.074 A 
ENDBRANCH   1   4
BRANCH   1   9
HETATM    9  N   UNL     1      65.705   6.712   5.033  1.00  0.00    -0.315 N 
HETATM   10  C   UNL     1      67.119   6.961   4.711  1.00  0.00     0.162 C 
HETATM   11  C   UNL     1      65.435   5.329   5.460  1.00  0.00     0.162 C 
ENDBRANCH   1   9
TORSDOF 2
ENDMDL
MODEL 2
REMARK VINA RESULT:      -3.9      1.638      2.263
REMARK  2 active torsions:
REMARK  status: ('A' for Active; 'I' for Inactive)
REMARK    1  A    between atoms: S_1  and  C_2 
REMARK    2  A    between atoms: S_1  and  N_3 
ROOT
HETATM    1  S   UNL     1      65.124   8.005   5.416  1.00  0.00     0.260 S 
HETATM    2  O   UNL     1      65.832   9.073   6.086  1.00  0.00    -0.200 OA
HETATM    3  O   UNL     1      65.740   7.209   4.377  1.00  0.00    -0.200 OA
ENDROOT
BRANCH   1   4
HETATM    4  C   UNL     1      63.808   8.809   4.612  1.00  0.00     0.086 A 
HETATM    5  C   UNL     1      63.157   9.977   5.114  1.00  0.00     0.033 A 
HETATM    6  C   UNL     1      62.128  10.386   4.291  1.00  0.00     0.051 A 
HETATM    7  S   UNL     1      61.956   9.370   2.924  1.00  0.00    -0.112 SA
HETATM    8  C   UNL     1      63.264   8.384   3.418  1.00  0.00     0.074 A 
ENDBRANCH   1   4
BRANCH   1   9
HETATM    9  N   UNL     1      64.469   6.962   6.586  1.00  0.00    -0.315 N 
HETATM   10  C   UNL     1      63.314   6.148   6.175  1.00  0.00     0.162 C 
HETATM   11  C   UNL     1      65.438   6.226   7.416  1.00  0.00     0.162 C 
ENDBRANCH   1   9
TORSDOF 2
ENDMDL
MODEL 3
REMARK VINA RESULT:      -3.7      1.837      4.272
REMARK  2 active torsions:
REMARK  status: ('A' for Active; 'I' for Inactive)
REMARK    1  A    between atoms: S_1  and  C_2 
REMARK    2  A    between atoms: S_1  and  N_3 
ROOT
HETATM    1  S   UNL     1      64.161   8.502   5.469  1.00  0.00     0.260 S 
HETATM    2  O   UNL     1      64.534   9.886   5.661  1.00  0.00    -0.200 OA
HETATM    3  O   UNL     1      63.182   7.848   6.310  1.00  0.00    -0.200 OA
ENDROOT
BRANCH   1   4
HETATM    4  C   UNL     1      65.632   7.622   5.765  1.00  0.00     0.086 A 
HETATM    5  C   UNL     1      66.844   7.821   5.036  1.00  0.00     0.033 A 
HETATM    6  C   UNL     1      67.843   6.969   5.458  1.00  0.00     0.051 A 
HETATM    7  S   UNL     1      67.322   5.946   6.727  1.00  0.00    -0.112 SA
HETATM    8  C   UNL     1      65.759   6.643   6.727  1.00  0.00     0.074 A 
ENDBRANCH   1   4
BRANCH   1   9
HETATM    9  N   UNL     1      63.726   8.270   3.843  1.00  0.00    -0.315 N 
HETATM   10  C   UNL     1      63.698   6.882   3.357  1.00  0.00     0.162 C 
HETATM   11  C   UNL     1      62.605   9.087   3.348  1.00  0.00     0.162 C 
ENDBRANCH   1   9
TORSDOF 2
ENDMDL
MODEL 4
REMARK VINA RESULT:      -3.7      2.438      5.013
REMARK  2 active torsions:
REMARK  status: ('A' for Active; 'I' for Inactive)
REMARK    1  A    between atoms: S_1  and  C_2 
REMARK    2  A    between atoms: S_1  and  N_3 
ROOT
HETATM    1  S   UNL     1      66.349   8.019   5.749  1.00  0.00     0.260 S 
HETATM    2  O   UNL     1      67.275   8.117   4.642  1.00  0.00    -0.200 OA
HETATM    3  O   UNL     1      66.139   9.112   6.672  1.00  0.00    -0.200 OA
ENDROOT
BRANCH   1   4
HETATM    4  C   UNL     1      67.003   6.747   6.738  1.00  0.00     0.086 A 
HETATM    5  C   UNL     1      67.687   5.604   6.222  1.00  0.00     0.033 A 
HETATM    6  C   UNL     1      68.073   4.740   7.225  1.00  0.00     0.051 A 
HETATM    7  S   UNL     1      67.619   5.309   8.774  1.00  0.00    -0.112 SA
HETATM    8  C   UNL     1      66.911   6.720   8.113  1.00  0.00     0.074 A 
ENDBRANCH   1   4
BRANCH   1   9
HETATM    9  N   UNL     1      64.840   7.506   5.159  1.00  0.00    -0.315 N 
HETATM   10  C   UNL     1      64.128   6.495   5.956  1.00  0.00     0.162 C 
HETATM   11  C   UNL     1      63.959   8.558   4.625  1.00  0.00     0.162 C 
ENDBRANCH   1   9
TORSDOF 2
ENDMDL
MODEL 5
REMARK VINA RESULT:      -3.7      2.082      2.716
REMARK  2 active torsions:
REMARK  status: ('A' for Active; 'I' for Inactive)
REMARK    1  A    between atoms: S_1  and  C_2 
REMARK    2  A    between atoms: S_1  and  N_3 
ROOT
HETATM    1  S   UNL     1      66.845   7.943   5.994  1.00  0.00     0.260 S 
HETATM    2  O   UNL     1      66.558   9.072   6.851  1.00  0.00    -0.200 OA
HETATM    3  O   UNL     1      67.968   7.939   5.082  1.00  0.00    -0.200 OA
ENDROOT
BRANCH   1   4
HETATM    4  C   UNL     1      65.454   7.834   4.956  1.00  0.00     0.086 A 
HETATM    5  C   UNL     1      64.362   8.755   4.983  1.00  0.00     0.033 A 
HETATM    6  C   UNL     1      63.380   8.414   4.076  1.00  0.00     0.051 A 
HETATM    7  S   UNL     1      63.779   6.999   3.198  1.00  0.00    -0.112 SA
HETATM    8  C   UNL     1      65.272   6.840   4.019  1.00  0.00     0.074 A 
ENDBRANCH   1   4
BRANCH   1   9
HETATM    9  N   UNL     1      66.908   6.535   6.942  1.00  0.00    -0.315 N 
HETATM   10  C   UNL     1      65.659   6.129   7.607  1.00  0.00     0.162 C 
HETATM   11  C   UNL     1      67.666   5.405   6.379  1.00  0.00     0.162 C 
ENDBRANCH   1   9
TORSDOF 2
ENDMDL
MODEL 6
REMARK VINA RESULT:      -3.6      1.713      2.250
REMARK  2 active torsions:
REMARK  status: ('A' for Active; 'I' for Inactive)
REMARK    1  A    between atoms: S_1  and  C_2 
REMARK    2  A    between atoms: S_1  and  N_3 
ROOT
HETATM    1  S   UNL     1      63.370   7.344   5.847  1.00  0.00     0.260 S 
HETATM    2  O   UNL     1      63.182   6.048   5.231  1.00  0.00    -0.200 OA
HETATM    3  O   UNL     1      62.650   7.739   7.037  1.00  0.00    -0.200 OA
ENDROOT
BRANCH   1   4
HETATM    4  C   UNL     1      62.839   8.471   4.634  1.00  0.00     0.086 A 
HETATM    5  C   UNL     1      62.661   9.869   4.864  1.00  0.00     0.033 A 
HETATM    6  C   UNL     1      62.204  10.521   3.737  1.00  0.00     0.051 A 
HETATM    7  S   UNL     1      61.999   9.453   2.415  1.00  0.00    -0.112 SA
HETATM    8  C   UNL     1      62.531   8.114   3.339  1.00  0.00     0.074 A 
ENDBRANCH   1   4
BRANCH   1   9
HETATM    9  N   UNL     1      65.031   7.592   6.107  1.00  0.00    -0.315 N 
HETATM   10  C   UNL     1      65.666   6.775   7.153  1.00  0.00     0.162 C 
HETATM   11  C   UNL     1      65.861   7.749   4.901  1.00  0.00     0.162 C 
ENDBRANCH   1   9
TORSDOF 2
ENDMDL
MODEL 7
REMARK VINA RESULT:      -3.5      2.042      4.575
REMARK  2 active torsions:
REMARK  status: ('A' for Active; 'I' for Inactive)
REMARK    1  A    between atoms: S_1  and  C_2 
REMARK    2  A    between atoms: S_1  and  N_3 
ROOT
HETATM    1  S   UNL     1      64.152   7.926   5.760  1.00  0.00     0.260 S 
HETATM    2  O   UNL     1      64.785   9.210   5.550  1.00  0.00    -0.200 OA
HETATM    3  O   UNL     1      63.132   7.729   6.765  1.00  0.00    -0.200 OA
ENDROOT
BRANCH   1   4
HETATM    4  C   UNL     1      65.454   6.890   6.266  1.00  0.00     0.086 A 
HETATM    5  C   UNL     1      65.752   6.586   7.630  1.00  0.00     0.033 A 
HETATM    6  C   UNL     1      66.854   5.765   7.744  1.00  0.00     0.051 A 
HETATM    7  S   UNL     1      67.517   5.361   6.219  1.00  0.00    -0.112 SA
HETATM    8  C   UNL     1      66.327   6.275   5.394  1.00  0.00     0.074 A 
ENDBRANCH   1   4
BRANCH   1   9
HETATM    9  N   UNL     1      63.569   7.352   4.271  1.00  0.00    -0.315 N 
HETATM   10  C   UNL     1      62.725   6.147   4.311  1.00  0.00     0.162 C 
HETATM   11  C   UNL     1      63.089   8.372   3.324  1.00  0.00     0.162 C 
ENDBRANCH   1   9
TORSDOF 2
ENDMDL
MODEL 8
REMARK VINA RESULT:      -3.4      2.737      5.229
REMARK  2 active torsions:
REMARK  status: ('A' for Active; 'I' for Inactive)
REMARK    1  A    between atoms: S_1  and  C_2 
REMARK    2  A    between atoms: S_1  and  N_3 
ROOT
HETATM    1  S   UNL     1      64.863   6.523   6.421  1.00  0.00     0.260 S 
HETATM    2  O   UNL     1      63.902   7.170   7.288  1.00  0.00    -0.200 OA
HETATM    3  O   UNL     1      64.520   5.365   5.626  1.00  0.00    -0.200 OA
ENDROOT
BRANCH   1   4
HETATM    4  C   UNL     1      66.091   5.945   7.509  1.00  0.00     0.086 A 
HETATM    5  C   UNL     1      66.811   6.779   8.418  1.00  0.00     0.033 A 
HETATM    6  C   UNL     1      67.746   6.065   9.138  1.00  0.00     0.051 A 
HETATM    7  S   UNL     1      67.748   4.404   8.722  1.00  0.00    -0.112 SA
HETATM    8  C   UNL     1      66.490   4.628   7.583  1.00  0.00     0.074 A 
ENDBRANCH   1   4
BRANCH   1   9
HETATM    9  N   UNL     1      65.563   7.693   5.408  1.00  0.00    -0.315 N 
HETATM   10  C   UNL     1      66.607   7.226   4.482  1.00  0.00     0.162 C 
HETATM   11  C   UNL     1      64.639   8.668   4.805  1.00  0.00     0.162 C 
ENDBRANCH   1   9
TORSDOF 2
ENDMDL
MODEL 9
REMARK VINA RESULT:      -3.4      3.711      5.035
REMARK  2 active torsions:
REMARK  status: ('A' for Active; 'I' for Inactive)
REMARK    1  A    between atoms: S_1  and  C_2 
REMARK    2  A    between atoms: S_1  and  N_3 
ROOT
HETATM    1  S   UNL     1      62.207   8.162   1.616  1.00  0.00     0.260 S 
HETATM    2  O   UNL     1      63.113   7.082   1.941  1.00  0.00    -0.200 OA
HETATM    3  O   UNL     1      62.396   8.996   0.450  1.00  0.00    -0.200 OA
ENDROOT
BRANCH   1   4
HETATM    4  C   UNL     1      62.360   9.260   2.955  1.00  0.00     0.086 A 
HETATM    5  C   UNL     1      61.835  10.589   2.965  1.00  0.00     0.033 A 
HETATM    6  C   UNL     1      62.128  11.248   4.140  1.00  0.00     0.051 A 
HETATM    7  S   UNL     1      63.021  10.268   5.222  1.00  0.00    -0.112 SA
HETATM    8  C   UNL     1      63.014   8.952   4.129  1.00  0.00     0.074 A 
ENDBRANCH   1   4
BRANCH   1   9
HETATM    9  N   UNL     1      60.618   7.561   1.605  1.00  0.00    -0.315 N 
HETATM   10  C   UNL     1      59.995   7.313   2.915  1.00  0.00     0.162 C 
HETATM   11  C   UNL     1      59.700   8.168   0.626  1.00  0.00     0.162 C 
ENDBRANCH   1   9
TORSDOF 2
ENDMDL
