MODEL 1
REMARK VINA RESULT:      -5.1      0.000      0.000
REMARK  3 active torsions:
REMARK  status: ('A' for Active; 'I' for Inactive)
REMARK    1  A    between atoms: C_1  and  C_2 
REMARK       I    between atoms: C_2  and  N_7 
REMARK    2  A    between atoms: C_3  and  O_4 
REMARK    3  A    between atoms: O_4  and  C_8 
ROOT
HETATM    1  C   UNL     1      60.774   8.245   1.833  1.00  0.00     0.065 C 
HETATM    2  C   UNL     1      60.500   7.954   3.173  1.00  0.00     0.085 C 
HETATM    3  C   UNL     1      59.909   7.847   0.797  1.00  0.00     0.020 C 
HETATM    4  C   UNL     1      59.218   7.491   3.469  1.00  0.00     0.038 C 
HETATM    5  C   UNL     1      58.654   7.342   1.113  1.00  0.00     0.001 C 
HETATM    6  C   UNL     1      58.287   7.222   2.453  1.00  0.00     0.003 C 
ENDROOT
BRANCH   2   7
HETATM    7  O   UNL     1      61.256   8.293   4.262  1.00  0.00    -0.345 OA
BRANCH   7   8
HETATM    8  C   UNL     1      62.602   7.806   4.498  1.00  0.00     0.133 C 
HETATM    9  C   UNL     1      62.595   6.782   5.643  1.00  0.00     0.058 C 
HETATM   10  C   UNL     1      63.884   6.610   6.438  1.00  0.00     0.170 C 
HETATM   11  O   UNL     1      64.753   7.732   6.388  1.00  0.00    -0.391 OA
HETATM   12  C   UNL     1      65.027   8.129   5.054  1.00  0.00     0.170 C 
HETATM   13  C   UNL     1      63.781   8.785   4.486  1.00  0.00     0.058 C 
ENDBRANCH   7   8
ENDBRANCH   2   7
BRANCH   1  14
HETATM   14  C   UNL     1      61.617   9.417   1.491  1.00  0.00     0.254 C 
HETATM   15  O   UNL     1      62.460   9.355   0.609  1.00  0.00    -0.268 OA
HETATM   16  N   UNL     1      61.229  10.531   2.187  1.00  0.00    -0.361 N 
HETATM   17  C   UNL     1      61.842  11.816   2.029  1.00  0.00     0.149 C 
HETATM   18  H   UNL     1      60.491  10.443   2.832  1.00  0.00     0.162 HD
ENDBRANCH   1  14
TORSDOF 3
ENDMDL
MODEL 2
REMARK VINA RESULT:      -5.1      3.397      4.797
REMARK  3 active torsions:
REMARK  status: ('A' for Active; 'I' for Inactive)
REMARK    1  A    between atoms: C_1  and  C_2 
REMARK       I    between atoms: C_2  and  N_7 
REMARK    2  A    between atoms: C_3  and  O_4 
REMARK    3  A    between atoms: O_4  and  C_8 
ROOT
HETATM    1  C   UNL     1      64.033   7.593   5.025  1.00  0.00     0.065 C 
HETATM    2  C   UNL     1      64.118   6.722   6.117  1.00  0.00     0.085 C 
HETATM    3  C   UNL     1      63.458   7.196   3.805  1.00  0.00     0.020 C 
HETATM    4  C   UNL     1      63.380   5.540   6.039  1.00  0.00     0.038 C 
HETATM    5  C   UNL     1      62.769   5.993   3.734  1.00  0.00     0.001 C 
HETATM    6  C   UNL     1      62.680   5.193   4.873  1.00  0.00     0.003 C 
ENDROOT
BRANCH   2   7
HETATM    7  O   UNL     1      64.645   6.993   7.349  1.00  0.00    -0.345 OA
BRANCH   7   8
HETATM    8  C   UNL     1      66.042   6.808   7.694  1.00  0.00     0.133 C 
HETATM    9  C   UNL     1      66.765   6.061   6.563  1.00  0.00     0.058 C 
HETATM   10  C   UNL     1      68.003   5.253   6.936  1.00  0.00     0.170 C 
HETATM   11  O   UNL     1      68.053   4.860   8.300  1.00  0.00    -0.391 OA
HETATM   12  C   UNL     1      67.883   5.964   9.174  1.00  0.00     0.170 C 
HETATM   13  C   UNL     1      66.429   6.398   9.119  1.00  0.00     0.058 C 
ENDBRANCH   7   8
ENDBRANCH   2   7
BRANCH   1  14
HETATM   14  C   UNL     1      64.000   9.059   5.254  1.00  0.00     0.254 C 
HETATM   15  O   UNL     1      64.973   9.653   5.696  1.00  0.00    -0.268 OA
HETATM   16  N   UNL     1      62.832   9.609   4.799  1.00  0.00    -0.361 N 
HETATM   17  C   UNL     1      62.543  11.011   4.855  1.00  0.00     0.149 C 
HETATM   18  H   UNL     1      62.154   9.009   4.414  1.00  0.00     0.162 HD
ENDBRANCH   1  14
TORSDOF 3
ENDMDL
MODEL 3
REMARK VINA RESULT:      -5.0      2.076      2.535
REMARK  3 active torsions:
REMARK  status: ('A' for Active; 'I' for Inactive)
REMARK    1  A    between atoms: C_1  and  C_2 
REMARK       I    between atoms: C_2  and  N_7 
REMARK    2  A    between atoms: C_3  and  O_4 
REMARK    3  A    between atoms: O_4  and  C_8 
ROOT
HETATM    1  C   UNL     1      62.357   9.167   2.749  1.00  0.00     0.065 C 
HETATM    2  C   UNL     1      62.213   7.864   3.236  1.00  0.00     0.085 C 
HETATM    3  C   UNL     1      62.092   9.488   1.405  1.00  0.00     0.020 C 
HETATM    4  C   UNL     1      61.548   6.953   2.413  1.00  0.00     0.038 C 
HETATM    5  C   UNL     1      61.473   8.552   0.588  1.00  0.00     0.001 C 
HETATM    6  C   UNL     1      61.147   7.302   1.114  1.00  0.00     0.003 C 
ENDROOT
BRANCH   2   7
HETATM    7  O   UNL     1      62.431   7.431   4.515  1.00  0.00    -0.345 OA
BRANCH   7   8
HETATM    8  C   UNL     1      63.610   6.696   4.933  1.00  0.00     0.133 C 
HETATM    9  C   UNL     1      63.809   6.844   6.449  1.00  0.00     0.058 C 
HETATM   10  C   UNL     1      65.227   6.694   6.988  1.00  0.00     0.170 C 
HETATM   11  O   UNL     1      66.244   6.947   6.030  1.00  0.00    -0.391 OA
HETATM   12  C   UNL     1      66.063   6.179   4.851  1.00  0.00     0.170 C 
HETATM   13  C   UNL     1      64.884   6.750   4.084  1.00  0.00     0.058 C 
ENDBRANCH   7   8
ENDBRANCH   2   7
BRANCH   1  14
HETATM   14  C   UNL     1      62.229  10.318   3.677  1.00  0.00     0.254 C 
HETATM   15  O   UNL     1      61.423  11.212   3.469  1.00  0.00    -0.268 OA
HETATM   16  N   UNL     1      63.013  10.153   4.787  1.00  0.00    -0.361 N 
HETATM   17  C   UNL     1      63.059  11.090   5.869  1.00  0.00     0.149 C 
HETATM   18  H   UNL     1      63.576   9.348   4.844  1.00  0.00     0.162 HD
ENDBRANCH   1  14
TORSDOF 3
ENDMDL
MODEL 4
REMARK VINA RESULT:      -5.0      2.191      5.517
REMARK  3 active torsions:
REMARK  status: ('A' for Active; 'I' for Inactive)
REMARK    1  A    between atoms: C_1  and  C_2 
REMARK       I    between atoms: C_2  and  N_7 
REMARK    2  A    between atoms: C_3  and  O_4 
REMARK    3  A    between atoms: O_4  and  C_8 
ROOT
HETATM    1  C   UNL     1      63.209   9.090   4.754  1.00  0.00     0.065 C 
HETATM    2  C   UNL     1      62.733   9.049   3.440  1.00  0.00     0.085 C 
HETATM    3  C   UNL     1      63.210  10.279   5.504  1.00  0.00     0.020 C 
HETATM    4  C   UNL     1      62.020  10.162   2.992  1.00  0.00     0.038 C 
HETATM    5  C   UNL     1      62.535  11.392   5.020  1.00  0.00     0.001 C 
HETATM    6  C   UNL     1      61.889  11.311   3.787  1.00  0.00     0.003 C 
ENDROOT
BRANCH   2   7
HETATM    7  O   UNL     1      62.674   7.958   2.617  1.00  0.00    -0.345 OA
BRANCH   7   8
HETATM    8  C   UNL     1      61.438   7.337   2.179  1.00  0.00     0.133 C 
HETATM    9  C   UNL     1      61.127   7.752   0.733  1.00  0.00     0.058 C 
HETATM   10  C   UNL     1      59.666   7.734   0.297  1.00  0.00     0.170 C 
HETATM   11  O   UNL     1      58.738   7.843   1.367  1.00  0.00    -0.391 OA
HETATM   12  C   UNL     1      58.980   6.877   2.376  1.00  0.00     0.170 C 
HETATM   13  C   UNL     1      60.237   7.275   3.128  1.00  0.00     0.058 C 
ENDBRANCH   7   8
ENDBRANCH   2   7
BRANCH   1  14
HETATM   14  C   UNL     1      63.188   7.858   5.583  1.00  0.00     0.254 C 
HETATM   15  O   UNL     1      62.615   7.831   6.662  1.00  0.00    -0.268 OA
HETATM   16  N   UNL     1      63.762   6.804   4.924  1.00  0.00    -0.361 N 
HETATM   17  C   UNL     1      63.846   5.482   5.469  1.00  0.00     0.149 C 
HETATM   18  H   UNL     1      64.138   6.964   4.029  1.00  0.00     0.162 HD
ENDBRANCH   1  14
TORSDOF 3
ENDMDL
MODEL 5
REMARK VINA RESULT:      -5.0      2.174      4.770
REMARK  3 active torsions:
REMARK  status: ('A' for Active; 'I' for Inactive)
REMARK    1  A    between atoms: C_1  and  C_2 
REMARK       I    between atoms: C_2  and  N_7 
REMARK    2  A    between atoms: C_3  and  O_4 
REMARK    3  A    between atoms: O_4  and  C_8 
ROOT
HETATM    1  C   UNL     1      62.662   9.202   4.491  1.00  0.00     0.065 C 
HETATM    2  C   UNL     1      62.075   8.063   3.931  1.00  0.00     0.085 C 
HETATM    3  C   UNL     1      63.966   9.180   5.018  1.00  0.00     0.020 C 
HETATM    4  C   UNL     1      62.917   6.980   3.675  1.00  0.00     0.038 C 
HETATM    5  C   UNL     1      64.774   8.073   4.794  1.00  0.00     0.001 C 
HETATM    6  C   UNL     1      64.265   6.996   4.068  1.00  0.00     0.003 C 
ENDROOT
BRANCH   2   7
HETATM    7  O   UNL     1      60.826   7.962   3.383  1.00  0.00    -0.345 OA
BRANCH   7   8
HETATM    8  C   UNL     1      59.803   7.049   3.858  1.00  0.00     0.133 C 
HETATM    9  C   UNL     1      58.409   7.616   3.545  1.00  0.00     0.058 C 
HETATM   10  C   UNL     1      57.256   7.173   4.439  1.00  0.00     0.170 C 
HETATM   11  O   UNL     1      57.656   6.723   5.725  1.00  0.00    -0.391 OA
HETATM   12  C   UNL     1      58.654   5.718   5.647  1.00  0.00     0.170 C 
HETATM   13  C   UNL     1      59.957   6.372   5.223  1.00  0.00     0.058 C 
ENDBRANCH   7   8
ENDBRANCH   2   7
BRANCH   1  14
HETATM   14  C   UNL     1      62.213  10.549   4.059  1.00  0.00     0.254 C 
HETATM   15  O   UNL     1      62.124  11.472   4.855  1.00  0.00    -0.268 OA
HETATM   16  N   UNL     1      62.056  10.610   2.700  1.00  0.00    -0.361 N 
HETATM   17  C   UNL     1      61.667  11.799   2.002  1.00  0.00     0.149 C 
HETATM   18  H   UNL     1      62.216   9.793   2.176  1.00  0.00     0.162 HD
ENDBRANCH   1  14
TORSDOF 3
ENDMDL
MODEL 6
REMARK VINA RESULT:      -4.8      2.313      3.561
REMARK  3 active torsions:
REMARK  status: ('A' for Active; 'I' for Inactive)
REMARK    1  A    between atoms: C_1  and  C_2 
REMARK       I    between atoms: C_2  and  N_7 
REMARK    2  A    between atoms: C_3  and  O_4 
REMARK    3  A    between atoms: O_4  and  C_8 
ROOT
HETATM    1  C   UNL     1      62.378   8.472   4.374  1.00  0.00     0.065 C 
HETATM    2  C   UNL     1      63.302   8.040   5.330  1.00  0.00     0.085 C 
HETATM    3  C   UNL     1      61.220   7.732   4.076  1.00  0.00     0.020 C 
HETATM    4  C   UNL     1      62.906   6.991   6.161  1.00  0.00     0.038 C 
HETATM    5  C   UNL     1      60.867   6.661   4.886  1.00  0.00     0.001 C 
HETATM    6  C   UNL     1      61.683   6.329   5.967  1.00  0.00     0.003 C 
ENDROOT
BRANCH   2   7
HETATM    7  O   UNL     1      64.454   8.672   5.710  1.00  0.00    -0.345 OA
BRANCH   7   8
HETATM    8  C   UNL     1      65.782   8.117   5.528  1.00  0.00     0.133 C 
HETATM    9  C   UNL     1      65.827   7.276   4.243  1.00  0.00     0.058 C 
HETATM   10  C   UNL     1      66.863   6.160   4.173  1.00  0.00     0.170 C 
HETATM   11  O   UNL     1      67.301   5.691   5.440  1.00  0.00    -0.391 OA
HETATM   12  C   UNL     1      67.751   6.750   6.268  1.00  0.00     0.170 C 
HETATM   13  C   UNL     1      66.541   7.543   6.729  1.00  0.00     0.058 C 
ENDBRANCH   7   8
ENDBRANCH   2   7
BRANCH   1  14
HETATM   14  C   UNL     1      62.259   9.920   4.067  1.00  0.00     0.254 C 
HETATM   15  O   UNL     1      62.512  10.768   4.909  1.00  0.00    -0.268 OA
HETATM   16  N   UNL     1      61.969  10.127   2.745  1.00  0.00    -0.361 N 
HETATM   17  C   UNL     1      61.835  11.427   2.160  1.00  0.00     0.149 C 
HETATM   18  H   UNL     1      61.844   9.341   2.168  1.00  0.00     0.162 HD
ENDBRANCH   1  14
TORSDOF 3
ENDMDL
MODEL 7
REMARK VINA RESULT:      -4.8      2.640      4.049
REMARK  3 active torsions:
REMARK  status: ('A' for Active; 'I' for Inactive)
REMARK    1  A    between atoms: C_1  and  C_2 
REMARK       I    between atoms: C_2  and  N_7 
REMARK    2  A    between atoms: C_3  and  O_4 
REMARK    3  A    between atoms: O_4  and  C_8 
ROOT
HETATM    1  C   UNL     1      62.440   8.653   3.490  1.00  0.00     0.065 C 
HETATM    2  C   UNL     1      63.192   8.563   4.665  1.00  0.00     0.085 C 
HETATM    3  C   UNL     1      61.707   9.809   3.167  1.00  0.00     0.020 C 
HETATM    4  C   UNL     1      63.402   9.748   5.372  1.00  0.00     0.038 C 
HETATM    5  C   UNL     1      61.893  10.966   3.912  1.00  0.00     0.001 C 
HETATM    6  C   UNL     1      62.790  10.949   4.980  1.00  0.00     0.003 C 
ENDROOT
BRANCH   2   7
HETATM    7  O   UNL     1      63.947   7.502   5.082  1.00  0.00    -0.345 OA
BRANCH   7   8
HETATM    8  C   UNL     1      65.188   7.630   5.823  1.00  0.00     0.133 C 
HETATM    9  C   UNL     1      66.373   7.715   4.849  1.00  0.00     0.058 C 
HETATM   10  C   UNL     1      67.734   7.256   5.360  1.00  0.00     0.170 C 
HETATM   11  O   UNL     1      67.671   6.347   6.449  1.00  0.00    -0.391 OA
HETATM   12  C   UNL     1      66.873   6.847   7.509  1.00  0.00     0.170 C 
HETATM   13  C   UNL     1      65.417   6.786   7.081  1.00  0.00     0.058 C 
ENDBRANCH   7   8
ENDBRANCH   2   7
BRANCH   1  14
HETATM   14  C   UNL     1      62.815   7.833   2.311  1.00  0.00     0.254 C 
HETATM   15  O   UNL     1      62.696   8.266   1.174  1.00  0.00    -0.268 OA
HETATM   16  N   UNL     1      63.395   6.652   2.690  1.00  0.00    -0.361 N 
HETATM   17  C   UNL     1      63.890   5.680   1.761  1.00  0.00     0.149 C 
HETATM   18  H   UNL     1      63.474   6.459   3.651  1.00  0.00     0.162 HD
ENDBRANCH   1  14
TORSDOF 3
ENDMDL
MODEL 8
REMARK VINA RESULT:      -4.7      2.094      5.191
REMARK  3 active torsions:
REMARK  status: ('A' for Active; 'I' for Inactive)
REMARK    1  A    between atoms: C_1  and  C_2 
REMARK       I    between atoms: C_2  and  N_7 
REMARK    2  A    between atoms: C_3  and  O_4 
REMARK    3  A    between atoms: O_4  and  C_8 
ROOT
HETATM    1  C   UNL     1      63.822   7.726   4.692  1.00  0.00     0.065 C 
HETATM    2  C   UNL     1      63.419   7.691   3.354  1.00  0.00     0.085 C 
HETATM    3  C   UNL     1      64.437   6.623   5.310  1.00  0.00     0.020 C 
HETATM    4  C   UNL     1      63.884   6.624   2.583  1.00  0.00     0.038 C 
HETATM    5  C   UNL     1      64.849   5.548   4.533  1.00  0.00     0.001 C 
HETATM    6  C   UNL     1      64.625   5.579   3.157  1.00  0.00     0.003 C 
ENDROOT
BRANCH   2   7
HETATM    7  O   UNL     1      62.822   8.696   2.644  1.00  0.00    -0.345 OA
BRANCH   7   8
HETATM    8  C   UNL     1      61.430   8.685   2.234  1.00  0.00     0.133 C 
HETATM    9  C   UNL     1      60.577   7.977   3.298  1.00  0.00     0.058 C 
HETATM   10  C   UNL     1      59.276   7.331   2.837  1.00  0.00     0.170 C 
HETATM   11  O   UNL     1      59.246   7.004   1.455  1.00  0.00    -0.391 OA
HETATM   12  C   UNL     1      59.577   8.118   0.641  1.00  0.00     0.170 C 
HETATM   13  C   UNL     1      61.066   8.382   0.777  1.00  0.00     0.058 C 
ENDBRANCH   7   8
ENDBRANCH   2   7
BRANCH   1  14
HETATM   14  C   UNL     1      64.148   9.027   5.328  1.00  0.00     0.254 C 
HETATM   15  O   UNL     1      65.292   9.301   5.660  1.00  0.00    -0.268 OA
HETATM   16  N   UNL     1      63.058   9.855   5.357  1.00  0.00    -0.361 N 
HETATM   17  C   UNL     1      63.091  11.189   5.879  1.00  0.00     0.149 C 
HETATM   18  H   UNL     1      62.206   9.515   5.002  1.00  0.00     0.162 HD
ENDBRANCH   1  14
TORSDOF 3
ENDMDL
MODEL 9
REMARK VINA RESULT:      -4.7      2.020      3.266
REMARK  3 active torsions:
REMARK  status: ('A' for Active; 'I' for Inactive)
REMARK    1  A    between atoms: C_1  and  C_2 
REMARK       I    between atoms: C_2  and  N_7 
REMARK    2  A    between atoms: C_3  and  O_4 
REMARK    3  A    between atoms: O_4  and  C_8 
ROOT
HETATM    1  C   UNL     1      60.597   7.614   3.115  1.00  0.00     0.065 C 
HETATM    2  C   UNL     1      61.643   8.442   3.536  1.00  0.00     0.085 C 
HETATM    3  C   UNL     1      60.058   7.705   1.819  1.00  0.00     0.020 C 
HETATM    4  C   UNL     1      62.306   9.173   2.549  1.00  0.00     0.038 C 
HETATM    5  C   UNL     1      60.705   8.476   0.863  1.00  0.00     0.001 C 
HETATM    6  C   UNL     1      61.866   9.163   1.216  1.00  0.00     0.003 C 
ENDROOT
BRANCH   2   7
HETATM    7  O   UNL     1      62.252   8.443   4.761  1.00  0.00    -0.345 OA
BRANCH   7   8
HETATM    8  C   UNL     1      63.561   7.872   5.017  1.00  0.00     0.133 C 
HETATM    9  C   UNL     1      63.447   6.746   6.056  1.00  0.00     0.058 C 
HETATM   10  C   UNL     1      64.683   6.438   6.894  1.00  0.00     0.170 C 
HETATM   11  O   UNL     1      65.601   7.517   6.996  1.00  0.00    -0.391 OA
HETATM   12  C   UNL     1      65.964   8.025   5.722  1.00  0.00     0.170 C 
HETATM   13  C   UNL     1      64.780   8.790   5.158  1.00  0.00     0.058 C 
ENDBRANCH   7   8
ENDBRANCH   2   7
BRANCH   1  14
HETATM   14  C   UNL     1      60.406   6.288   3.753  1.00  0.00     0.254 C 
HETATM   15  O   UNL     1      60.736   5.258   3.184  1.00  0.00    -0.268 OA
HETATM   16  N   UNL     1      59.953   6.414   5.039  1.00  0.00    -0.361 N 
HETATM   17  C   UNL     1      59.716   5.299   5.906  1.00  0.00     0.149 C 
HETATM   18  H   UNL     1      59.779   7.318   5.384  1.00  0.00     0.162 HD
ENDBRANCH   1  14
TORSDOF 3
ENDMDL
