MODEL 1
REMARK VINA RESULT:      -5.9      0.000      0.000
REMARK  3 active torsions:
REMARK  status: ('A' for Active; 'I' for Inactive)
REMARK       I    between atoms: N_1  and  C_2 
REMARK    1  A    between atoms: C_2  and  C_3 
REMARK    2  A    between atoms: C_3  and  S_5 
REMARK    3  A    between atoms: S_5  and  C_6 
ROOT
HETATM    1  N   UNL     1      66.209   6.850   6.833  1.00  0.00    -0.351 N 
HETATM    2  C   UNL     1      65.016   7.340   6.294  1.00  0.00     0.229 C 
HETATM    3  O   UNL     1      63.982   7.347   6.962  1.00  0.00    -0.273 OA
HETATM    4  C   UNL     1      66.233   6.416   8.232  1.00  0.00     0.125 C 
HETATM    5  C   UNL     1      67.436   6.558   6.094  1.00  0.00     0.125 C 
HETATM    6  C   UNL     1      67.728   5.059   6.123  1.00  0.00     0.020 C 
HETATM    7  C   UNL     1      66.509   4.916   8.331  1.00  0.00     0.020 C 
HETATM    8  C   UNL     1      67.770   4.529   7.556  1.00  0.00     0.003 C 
ENDROOT
BRANCH   2   9
HETATM    9  C   UNL     1      65.042   7.832   4.839  1.00  0.00     0.182 C 
BRANCH   9  10
HETATM   10  S   UNL     1      63.615   7.172   3.903  1.00  0.00    -0.121 SA
BRANCH  10  11
HETATM   11  C   UNL     1      62.792   8.672   3.392  1.00  0.00     0.001 A 
HETATM   12  C   UNL     1      62.659   9.713   4.317  1.00  0.00     0.018 A 
HETATM   13  C   UNL     1      62.145  10.951   3.925  1.00  0.00     0.001 A 
HETATM   14  C   UNL     1      61.772  11.164   2.600  1.00  0.00     0.000 A 
HETATM   15  C   UNL     1      61.896  10.129   1.672  1.00  0.00     0.001 A 
HETATM   16  C   UNL     1      62.401   8.886   2.067  1.00  0.00     0.018 A 
ENDBRANCH  10  11
ENDBRANCH   9  10
ENDBRANCH   2   9
TORSDOF 3
ENDMDL
MODEL 2
REMARK VINA RESULT:      -5.7      1.777      7.045
REMARK  3 active torsions:
REMARK  status: ('A' for Active; 'I' for Inactive)
REMARK       I    between atoms: N_1  and  C_2 
REMARK    1  A    between atoms: C_2  and  C_3 
REMARK    2  A    between atoms: C_3  and  S_5 
REMARK    3  A    between atoms: S_5  and  C_6 
ROOT
HETATM    1  N   UNL     1      62.893   8.911   4.198  1.00  0.00    -0.351 N 
HETATM    2  C   UNL     1      64.061   8.831   4.962  1.00  0.00     0.229 C 
HETATM    3  O   UNL     1      64.446   9.796   5.622  1.00  0.00    -0.273 OA
HETATM    4  C   UNL     1      62.089  10.135   4.251  1.00  0.00     0.125 C 
HETATM    5  C   UNL     1      62.451   7.948   3.191  1.00  0.00     0.125 C 
HETATM    6  C   UNL     1      62.463   8.588   1.804  1.00  0.00     0.020 C 
HETATM    7  C   UNL     1      62.070  10.833   2.892  1.00  0.00     0.020 C 
HETATM    8  C   UNL     1      61.640   9.876   1.779  1.00  0.00     0.003 C 
ENDROOT
BRANCH   2   9
HETATM    9  C   UNL     1      64.851   7.514   4.918  1.00  0.00     0.182 C 
BRANCH   9  10
HETATM   10  S   UNL     1      66.636   7.817   5.180  1.00  0.00    -0.121 SA
BRANCH  10  11
HETATM   11  C   UNL     1      66.977   6.779   6.591  1.00  0.00     0.001 A 
HETATM   12  C   UNL     1      67.667   5.579   6.391  1.00  0.00     0.018 A 
HETATM   13  C   UNL     1      68.075   4.802   7.478  1.00  0.00     0.001 A 
HETATM   14  C   UNL     1      67.806   5.226   8.777  1.00  0.00     0.000 A 
HETATM   15  C   UNL     1      67.111   6.417   8.987  1.00  0.00     0.001 A 
HETATM   16  C   UNL     1      66.695   7.191   7.898  1.00  0.00     0.018 A 
ENDBRANCH  10  11
ENDBRANCH   9  10
ENDBRANCH   2   9
TORSDOF 3
ENDMDL
MODEL 3
REMARK VINA RESULT:      -5.6      1.249      2.096
REMARK  3 active torsions:
REMARK  status: ('A' for Active; 'I' for Inactive)
REMARK       I    between atoms: N_1  and  C_2 
REMARK    1  A    between atoms: C_2  and  C_3 
REMARK    2  A    between atoms: C_3  and  S_5 
REMARK    3  A    between atoms: S_5  and  C_6 
ROOT
HETATM    1  N   UNL     1      65.451   6.844   5.552  1.00  0.00    -0.351 N 
HETATM    2  C   UNL     1      64.657   7.993   5.625  1.00  0.00     0.229 C 
HETATM    3  O   UNL     1      65.162   9.111   5.532  1.00  0.00    -0.273 OA
HETATM    4  C   UNL     1      66.884   6.985   5.284  1.00  0.00     0.125 C 
HETATM    5  C   UNL     1      65.034   5.482   5.883  1.00  0.00     0.125 C 
HETATM    6  C   UNL     1      65.798   4.977   7.104  1.00  0.00     0.020 C 
HETATM    7  C   UNL     1      67.709   6.505   6.478  1.00  0.00     0.020 C 
HETATM    8  C   UNL     1      67.309   5.090   6.901  1.00  0.00     0.003 C 
ENDROOT
BRANCH   2   9
HETATM    9  C   UNL     1      63.150   7.802   5.858  1.00  0.00     0.182 C 
BRANCH   9  10
HETATM   10  S   UNL     1      62.299   7.385   4.293  1.00  0.00    -0.121 SA
BRANCH  10  11
HETATM   11  C   UNL     1      62.231   8.974   3.482  1.00  0.00     0.001 A 
HETATM   12  C   UNL     1      62.194   9.014   2.085  1.00  0.00     0.018 A 
HETATM   13  C   UNL     1      62.004  10.223   1.412  1.00  0.00     0.001 A 
HETATM   14  C   UNL     1      61.836  11.403   2.132  1.00  0.00     0.000 A 
HETATM   15  C   UNL     1      61.879  11.375   3.527  1.00  0.00     0.001 A 
HETATM   16  C   UNL     1      62.079  10.165   4.200  1.00  0.00     0.018 A 
ENDBRANCH  10  11
ENDBRANCH   9  10
ENDBRANCH   2   9
TORSDOF 3
ENDMDL
MODEL 4
REMARK VINA RESULT:      -5.1      4.176      6.018
REMARK  3 active torsions:
REMARK  status: ('A' for Active; 'I' for Inactive)
REMARK       I    between atoms: N_1  and  C_2 
REMARK    1  A    between atoms: C_2  and  C_3 
REMARK    2  A    between atoms: C_3  and  S_5 
REMARK    3  A    between atoms: S_5  and  C_6 
ROOT
HETATM    1  N   UNL     1      59.506   6.011   5.500  1.00  0.00    -0.351 N 
HETATM    2  C   UNL     1      60.826   6.338   5.822  1.00  0.00     0.229 C 
HETATM    3  O   UNL     1      61.200   6.359   6.994  1.00  0.00    -0.273 OA
HETATM    4  C   UNL     1      58.589   5.615   6.572  1.00  0.00     0.125 C 
HETATM    5  C   UNL     1      58.866   6.179   4.196  1.00  0.00     0.125 C 
HETATM    6  C   UNL     1      57.755   7.223   4.282  1.00  0.00     0.020 C 
HETATM    7  C   UNL     1      57.455   6.629   6.719  1.00  0.00     0.020 C 
HETATM    8  C   UNL     1      56.751   6.878   5.383  1.00  0.00     0.003 C 
ENDROOT
BRANCH   2   9
HETATM    9  C   UNL     1      61.771   6.700   4.665  1.00  0.00     0.182 C 
BRANCH   9  10
HETATM   10  S   UNL     1      62.924   8.031   5.160  1.00  0.00    -0.121 SA
BRANCH  10  11
HETATM   11  C   UNL     1      62.576   9.286   3.939  1.00  0.00     0.001 A 
HETATM   12  C   UNL     1      62.454   8.902   2.599  1.00  0.00     0.018 A 
HETATM   13  C   UNL     1      62.049   9.823   1.630  1.00  0.00     0.001 A 
HETATM   14  C   UNL     1      61.750  11.134   1.994  1.00  0.00     0.000 A 
HETATM   15  C   UNL     1      61.876  11.527   3.327  1.00  0.00     0.001 A 
HETATM   16  C   UNL     1      62.291  10.607   4.296  1.00  0.00     0.018 A 
ENDBRANCH  10  11
ENDBRANCH   9  10
ENDBRANCH   2   9
TORSDOF 3
ENDMDL
MODEL 5
REMARK VINA RESULT:      -5.0      2.445      6.155
REMARK  3 active torsions:
REMARK  status: ('A' for Active; 'I' for Inactive)
REMARK       I    between atoms: N_1  and  C_2 
REMARK    1  A    between atoms: C_2  and  C_3 
REMARK    2  A    between atoms: C_3  and  S_5 
REMARK    3  A    between atoms: S_5  and  C_6 
ROOT
HETATM    1  N   UNL     1      62.590   8.299   3.572  1.00  0.00    -0.351 N 
HETATM    2  C   UNL     1      62.129   7.119   4.162  1.00  0.00     0.229 C 
HETATM    3  O   UNL     1      61.602   6.240   3.480  1.00  0.00    -0.273 OA
HETATM    4  C   UNL     1      62.508   8.447   2.116  1.00  0.00     0.125 C 
HETATM    5  C   UNL     1      63.007   9.511   4.274  1.00  0.00     0.125 C 
HETATM    6  C   UNL     1      62.049  10.660   3.965  1.00  0.00     0.020 C 
HETATM    7  C   UNL     1      61.551   9.577   1.738  1.00  0.00     0.020 C 
HETATM    8  C   UNL     1      61.911  10.878   2.458  1.00  0.00     0.003 C 
ENDROOT
BRANCH   2   9
HETATM    9  C   UNL     1      62.277   6.980   5.685  1.00  0.00     0.182 C 
BRANCH   9  10
HETATM   10  S   UNL     1      63.544   5.729   6.104  1.00  0.00    -0.121 SA
BRANCH  10  11
HETATM   11  C   UNL     1      65.044   6.542   5.577  1.00  0.00     0.001 A 
HETATM   12  C   UNL     1      65.691   7.401   6.470  1.00  0.00     0.018 A 
HETATM   13  C   UNL     1      66.936   7.952   6.153  1.00  0.00     0.001 A 
HETATM   14  C   UNL     1      67.550   7.636   4.943  1.00  0.00     0.000 A 
HETATM   15  C   UNL     1      66.908   6.785   4.043  1.00  0.00     0.001 A 
HETATM   16  C   UNL     1      65.658   6.241   4.357  1.00  0.00     0.018 A 
ENDBRANCH  10  11
ENDBRANCH   9  10
ENDBRANCH   2   9
TORSDOF 3
ENDMDL
MODEL 6
REMARK VINA RESULT:      -4.7      3.835      4.594
REMARK  3 active torsions:
REMARK  status: ('A' for Active; 'I' for Inactive)
REMARK       I    between atoms: N_1  and  C_2 
REMARK    1  A    between atoms: C_2  and  C_3 
REMARK    2  A    between atoms: C_3  and  S_5 
REMARK    3  A    between atoms: S_5  and  C_6 
ROOT
HETATM    1  N   UNL     1      61.082   5.307   6.411  1.00  0.00    -0.351 N 
HETATM    2  C   UNL     1      62.337   5.881   6.187  1.00  0.00     0.229 C 
HETATM    3  O   UNL     1      63.334   5.174   6.044  1.00  0.00    -0.273 OA
HETATM    4  C   UNL     1      60.954   3.848   6.397  1.00  0.00     0.125 C 
HETATM    5  C   UNL     1      59.872   6.011   6.833  1.00  0.00     0.125 C 
HETATM    6  C   UNL     1      59.455   5.556   8.230  1.00  0.00     0.020 C 
HETATM    7  C   UNL     1      60.549   3.325   7.775  1.00  0.00     0.020 C 
HETATM    8  C   UNL     1      59.299   4.036   8.296  1.00  0.00     0.003 C 
ENDROOT
BRANCH   2   9
HETATM    9  C   UNL     1      62.423   7.415   6.159  1.00  0.00     0.182 C 
BRANCH   9  10
HETATM   10  S   UNL     1      63.774   7.971   5.059  1.00  0.00    -0.121 SA
BRANCH  10  11
HETATM   11  C   UNL     1      62.887   8.961   3.867  1.00  0.00     0.001 A 
HETATM   12  C   UNL     1      62.459  10.239   4.242  1.00  0.00     0.018 A 
HETATM   13  C   UNL     1      61.884  11.100   3.304  1.00  0.00     0.001 A 
HETATM   14  C   UNL     1      61.742  10.694   1.980  1.00  0.00     0.000 A 
HETATM   15  C   UNL     1      62.159   9.419   1.598  1.00  0.00     0.001 A 
HETATM   16  C   UNL     1      62.728   8.553   2.539  1.00  0.00     0.018 A 
ENDBRANCH  10  11
ENDBRANCH   9  10
ENDBRANCH   2   9
TORSDOF 3
ENDMDL
MODEL 7
REMARK VINA RESULT:      -4.5      5.661      7.845
REMARK  3 active torsions:
REMARK  status: ('A' for Active; 'I' for Inactive)
REMARK       I    between atoms: N_1  and  C_2 
REMARK    1  A    between atoms: C_2  and  C_3 
REMARK    2  A    between atoms: C_3  and  S_5 
REMARK    3  A    between atoms: S_5  and  C_6 
ROOT
HETATM    1  N   UNL     1      59.824   7.535   2.358  1.00  0.00    -0.351 N 
HETATM    2  C   UNL     1      58.426   7.544   2.347  1.00  0.00     0.229 C 
HETATM    3  O   UNL     1      57.806   7.545   1.284  1.00  0.00    -0.273 OA
HETATM    4  C   UNL     1      60.545   7.449   1.086  1.00  0.00     0.125 C 
HETATM    5  C   UNL     1      60.681   7.774   3.518  1.00  0.00     0.125 C 
HETATM    6  C   UNL     1      61.476   9.065   3.332  1.00  0.00     0.020 C 
HETATM    7  C   UNL     1      61.354   8.720   0.833  1.00  0.00     0.020 C 
HETATM    8  C   UNL     1      62.261   9.050   2.020  1.00  0.00     0.003 C 
ENDROOT
BRANCH   2   9
HETATM    9  C   UNL     1      57.705   7.586   3.704  1.00  0.00     0.182 C 
BRANCH   9  10
HETATM   10  S   UNL     1      57.491   5.899   4.379  1.00  0.00    -0.121 SA
BRANCH  10  11
HETATM   11  C   UNL     1      57.806   6.161   6.116  1.00  0.00     0.001 A 
HETATM   12  C   UNL     1      58.998   5.675   6.663  1.00  0.00     0.018 A 
HETATM   13  C   UNL     1      59.350   5.973   7.982  1.00  0.00     0.001 A 
HETATM   14  C   UNL     1      58.517   6.772   8.762  1.00  0.00     0.000 A 
HETATM   15  C   UNL     1      57.323   7.256   8.227  1.00  0.00     0.001 A 
HETATM   16  C   UNL     1      56.967   6.950   6.909  1.00  0.00     0.018 A 
ENDBRANCH  10  11
ENDBRANCH   9  10
ENDBRANCH   2   9
TORSDOF 3
ENDMDL
MODEL 8
REMARK VINA RESULT:      -4.3      4.783      6.561
REMARK  3 active torsions:
REMARK  status: ('A' for Active; 'I' for Inactive)
REMARK       I    between atoms: N_1  and  C_2 
REMARK    1  A    between atoms: C_2  and  C_3 
REMARK    2  A    between atoms: C_3  and  S_5 
REMARK    3  A    between atoms: S_5  and  C_6 
ROOT
HETATM    1  N   UNL     1      58.698   5.770   6.516  1.00  0.00    -0.351 N 
HETATM    2  C   UNL     1      60.089   5.915   6.528  1.00  0.00     0.229 C 
HETATM    3  O   UNL     1      60.685   6.161   7.576  1.00  0.00    -0.273 OA
HETATM    4  C   UNL     1      57.965   5.839   7.782  1.00  0.00     0.125 C 
HETATM    5  C   UNL     1      57.844   5.720   5.331  1.00  0.00     0.125 C 
HETATM    6  C   UNL     1      56.928   6.941   5.285  1.00  0.00     0.020 C 
HETATM    7  C   UNL     1      57.035   7.051   7.806  1.00  0.00     0.020 C 
HETATM    8  C   UNL     1      56.124   7.081   6.578  1.00  0.00     0.003 C 
ENDROOT
BRANCH   2   9
HETATM    9  C   UNL     1      60.828   5.788   5.187  1.00  0.00     0.182 C 
BRANCH   9  10
HETATM   10  S   UNL     1      62.054   7.132   4.990  1.00  0.00    -0.121 SA
BRANCH  10  11
HETATM   11  C   UNL     1      61.727   7.680   3.323  1.00  0.00     0.001 A 
HETATM   12  C   UNL     1      60.497   7.357   2.739  1.00  0.00     0.018 A 
HETATM   13  C   UNL     1      60.142   7.878   1.492  1.00  0.00     0.001 A 
HETATM   14  C   UNL     1      61.010   8.737   0.823  1.00  0.00     0.000 A 
HETATM   15  C   UNL     1      62.242   9.059   1.394  1.00  0.00     0.001 A 
HETATM   16  C   UNL     1      62.601   8.530   2.639  1.00  0.00     0.018 A 
ENDBRANCH  10  11
ENDBRANCH   9  10
ENDBRANCH   2   9
TORSDOF 3
ENDMDL
MODEL 9
REMARK VINA RESULT:      -4.3      5.382      7.051
REMARK  3 active torsions:
REMARK  status: ('A' for Active; 'I' for Inactive)
REMARK       I    between atoms: N_1  and  C_2 
REMARK    1  A    between atoms: C_2  and  C_3 
REMARK    2  A    between atoms: C_3  and  S_5 
REMARK    3  A    between atoms: S_5  and  C_6 
ROOT
HETATM    1  N   UNL     1      57.897   6.526   5.905  1.00  0.00    -0.351 N 
HETATM    2  C   UNL     1      58.386   7.015   4.690  1.00  0.00     0.229 C 
HETATM    3  O   UNL     1      57.885   8.008   4.165  1.00  0.00    -0.273 OA
HETATM    4  C   UNL     1      56.826   7.258   6.586  1.00  0.00     0.125 C 
HETATM    5  C   UNL     1      58.225   5.239   6.514  1.00  0.00     0.125 C 
HETATM    6  C   UNL     1      56.988   4.343   6.559  1.00  0.00     0.020 C 
HETATM    7  C   UNL     1      55.552   6.418   6.654  1.00  0.00     0.020 C 
HETATM    8  C   UNL     1      55.822   5.040   7.261  1.00  0.00     0.003 C 
ENDROOT
BRANCH   2   9
HETATM    9  C   UNL     1      59.542   6.247   4.029  1.00  0.00     0.182 C 
BRANCH   9  10
HETATM   10  S   UNL     1      61.156   6.824   4.670  1.00  0.00    -0.121 SA
BRANCH  10  11
HETATM   11  C   UNL     1      61.523   8.176   3.563  1.00  0.00     0.001 A 
HETATM   12  C   UNL     1      61.254   8.019   2.199  1.00  0.00     0.018 A 
HETATM   13  C   UNL     1      61.397   9.093   1.318  1.00  0.00     0.001 A 
HETATM   14  C   UNL     1      61.798  10.339   1.795  1.00  0.00     0.000 A 
HETATM   15  C   UNL     1      62.075  10.503   3.152  1.00  0.00     0.001 A 
HETATM   16  C   UNL     1      61.941   9.425   4.034  1.00  0.00     0.018 A 
ENDBRANCH  10  11
ENDBRANCH   9  10
ENDBRANCH   2   9
TORSDOF 3
ENDMDL
