MODEL 1
REMARK VINA RESULT:      -4.3      0.000      0.000
REMARK  1 active torsions:
REMARK  status: ('A' for Active; 'I' for Inactive)
REMARK       I    between atoms: C_1  and  N_2 
REMARK    1  A    between atoms: C_1  and  C_4 
ROOT
HETATM    1  C   UNL     1      62.847   9.268   4.713  1.00  0.00     0.082 C 
HETATM    2  O   UNL     1      62.081  11.342   2.875  1.00  0.00    -0.391 OA
HETATM    3  C   UNL     1      61.838   9.981   2.524  1.00  0.00     0.168 C 
HETATM    4  C   UNL     1      61.969  11.572   4.277  1.00  0.00     0.168 C 
HETATM    5  C   UNL     1      62.845   9.059   3.193  1.00  0.00     0.040 C 
HETATM    6  C   UNL     1      62.999  10.754   5.042  1.00  0.00     0.040 C 
ENDROOT
BRANCH   1   7
HETATM    7  C   UNL     1      63.989   8.464   5.343  1.00  0.00     0.223 C 
HETATM    8  N   UNL     1      63.661   7.327   6.073  1.00  0.00    -0.360 N 
HETATM    9  C   UNL     1      64.729   6.552   6.691  1.00  0.00     0.152 C 
HETATM   10  C   UNL     1      62.309   6.824   6.241  1.00  0.00     0.152 C 
HETATM   11  O   UNL     1      65.152   8.847   5.231  1.00  0.00    -0.273 OA
ENDBRANCH   1   7
TORSDOF 1
ENDMDL
MODEL 2
REMARK VINA RESULT:      -4.2      2.304      4.195
REMARK  1 active torsions:
REMARK  status: ('A' for Active; 'I' for Inactive)
REMARK       I    between atoms: C_1  and  N_2 
REMARK    1  A    between atoms: C_1  and  C_4 
ROOT
HETATM    1  C   UNL     1      62.101   9.245   3.723  1.00  0.00     0.082 C 
HETATM    2  O   UNL     1      64.170  10.149   5.503  1.00  0.00    -0.391 OA
HETATM    3  C   UNL     1      62.915  10.827   5.499  1.00  0.00     0.168 C 
HETATM    4  C   UNL     1      64.038   8.755   5.232  1.00  0.00     0.168 C 
HETATM    5  C   UNL     1      62.241  10.714   4.141  1.00  0.00     0.040 C 
HETATM    6  C   UNL     1      63.446   8.529   3.848  1.00  0.00     0.040 C 
ENDROOT
BRANCH   1   7
HETATM    7  C   UNL     1      61.587   9.166   2.282  1.00  0.00     0.223 C 
HETATM    8  N   UNL     1      60.581   8.250   1.997  1.00  0.00    -0.360 N 
HETATM    9  C   UNL     1      60.084   8.147   0.632  1.00  0.00     0.152 C 
HETATM   10  C   UNL     1      59.950   7.393   2.986  1.00  0.00     0.152 C 
HETATM   11  O   UNL     1      62.088   9.868   1.405  1.00  0.00    -0.273 OA
ENDBRANCH   1   7
TORSDOF 1
ENDMDL
MODEL 3
REMARK VINA RESULT:      -4.2      1.454      2.293
REMARK  1 active torsions:
REMARK  status: ('A' for Active; 'I' for Inactive)
REMARK       I    between atoms: C_1  and  N_2 
REMARK    1  A    between atoms: C_1  and  C_4 
ROOT
HETATM    1  C   UNL     1      63.362   8.889   4.877  1.00  0.00     0.082 C 
HETATM    2  O   UNL     1      61.299  10.543   3.747  1.00  0.00    -0.391 OA
HETATM    3  C   UNL     1      62.393  11.163   4.420  1.00  0.00     0.168 C 
HETATM    4  C   UNL     1      61.680   9.342   3.079  1.00  0.00     0.168 C 
HETATM    5  C   UNL     1      62.970  10.242   5.484  1.00  0.00     0.040 C 
HETATM    6  C   UNL     1      62.196   8.312   4.072  1.00  0.00     0.040 C 
ENDROOT
BRANCH   1   7
HETATM    7  C   UNL     1      63.768   7.921   5.993  1.00  0.00     0.223 C 
HETATM    8  N   UNL     1      65.075   7.446   6.001  1.00  0.00    -0.360 N 
HETATM    9  C   UNL     1      65.482   6.516   7.045  1.00  0.00     0.152 C 
HETATM   10  C   UNL     1      66.096   7.842   5.047  1.00  0.00     0.152 C 
HETATM   11  O   UNL     1      62.942   7.553   6.826  1.00  0.00    -0.273 OA
ENDBRANCH   1   7
TORSDOF 1
ENDMDL
MODEL 4
REMARK VINA RESULT:      -4.0      1.856      4.525
REMARK  1 active torsions:
REMARK  status: ('A' for Active; 'I' for Inactive)
REMARK       I    between atoms: C_1  and  N_2 
REMARK    1  A    between atoms: C_1  and  C_4 
ROOT
HETATM    1  C   UNL     1      63.718   8.221   5.012  1.00  0.00     0.082 C 
HETATM    2  O   UNL     1      65.045   6.365   6.761  1.00  0.00    -0.391 OA
HETATM    3  C   UNL     1      63.689   6.121   6.394  1.00  0.00     0.168 C 
HETATM    4  C   UNL     1      65.786   7.001   5.722  1.00  0.00     0.168 C 
HETATM    5  C   UNL     1      62.967   7.423   6.085  1.00  0.00     0.040 C 
HETATM    6  C   UNL     1      65.192   8.363   5.393  1.00  0.00     0.040 C 
ENDROOT
BRANCH   1   7
HETATM    7  C   UNL     1      63.074   9.602   4.850  1.00  0.00     0.223 C 
HETATM    8  N   UNL     1      62.469   9.901   3.635  1.00  0.00    -0.360 N 
HETATM    9  C   UNL     1      61.860  11.211   3.453  1.00  0.00     0.152 C 
HETATM   10  C   UNL     1      62.364   8.974   2.522  1.00  0.00     0.152 C 
HETATM   11  O   UNL     1      63.135  10.425   5.762  1.00  0.00    -0.273 OA
ENDBRANCH   1   7
TORSDOF 1
ENDMDL
MODEL 5
REMARK VINA RESULT:      -3.9      2.102      4.982
REMARK  1 active torsions:
REMARK  status: ('A' for Active; 'I' for Inactive)
REMARK       I    between atoms: C_1  and  N_2 
REMARK    1  A    between atoms: C_1  and  C_4 
ROOT
HETATM    1  C   UNL     1      65.330   7.575   5.251  1.00  0.00     0.082 C 
HETATM    2  O   UNL     1      67.407   6.241   6.725  1.00  0.00    -0.391 OA
HETATM    3  C   UNL     1      66.069   5.756   6.821  1.00  0.00     0.168 C 
HETATM    4  C   UNL     1      67.699   6.786   5.440  1.00  0.00     0.168 C 
HETATM    5  C   UNL     1      65.068   6.877   6.591  1.00  0.00     0.040 C 
HETATM    6  C   UNL     1      66.802   7.979   5.144  1.00  0.00     0.040 C 
ENDROOT
BRANCH   1   7
HETATM    7  C   UNL     1      64.430   8.809   5.126  1.00  0.00     0.223 C 
HETATM    8  N   UNL     1      63.383   8.762   4.213  1.00  0.00    -0.360 N 
HETATM    9  C   UNL     1      62.519   9.926   4.068  1.00  0.00     0.152 C 
HETATM   10  C   UNL     1      63.056   7.603   3.400  1.00  0.00     0.152 C 
HETATM   11  O   UNL     1      64.663   9.816   5.791  1.00  0.00    -0.273 OA
ENDBRANCH   1   7
TORSDOF 1
ENDMDL
MODEL 6
REMARK VINA RESULT:      -3.8      2.507      3.343
REMARK  1 active torsions:
REMARK  status: ('A' for Active; 'I' for Inactive)
REMARK       I    between atoms: C_1  and  N_2 
REMARK    1  A    between atoms: C_1  and  C_4 
ROOT
HETATM    1  C   UNL     1      62.417   8.975   2.701  1.00  0.00     0.082 C 
HETATM    2  O   UNL     1      61.584  11.627   3.438  1.00  0.00    -0.391 OA
HETATM    3  C   UNL     1      62.346  10.858   4.366  1.00  0.00     0.168 C 
HETATM    4  C   UNL     1      61.936  11.354   2.084  1.00  0.00     0.168 C 
HETATM    5  C   UNL     1      62.120   9.369   4.154  1.00  0.00     0.040 C 
HETATM    6  C   UNL     1      61.666   9.897   1.739  1.00  0.00     0.040 C 
ENDROOT
BRANCH   1   7
HETATM    7  C   UNL     1      62.010   7.517   2.468  1.00  0.00     0.223 C 
HETATM    8  N   UNL     1      62.957   6.528   2.712  1.00  0.00    -0.360 N 
HETATM    9  C   UNL     1      62.597   5.135   2.487  1.00  0.00     0.152 C 
HETATM   10  C   UNL     1      64.294   6.783   3.218  1.00  0.00     0.152 C 
HETATM   11  O   UNL     1      60.889   7.247   2.039  1.00  0.00    -0.273 OA
ENDBRANCH   1   7
TORSDOF 1
ENDMDL
MODEL 7
REMARK VINA RESULT:      -3.7      1.907      2.629
REMARK  1 active torsions:
REMARK  status: ('A' for Active; 'I' for Inactive)
REMARK       I    between atoms: C_1  and  N_2 
REMARK    1  A    between atoms: C_1  and  C_4 
ROOT
HETATM    1  C   UNL     1      63.413   8.003   4.346  1.00  0.00     0.082 C 
HETATM    2  O   UNL     1      60.620   8.189   3.693  1.00  0.00    -0.391 OA
HETATM    3  C   UNL     1      61.582   8.694   2.769  1.00  0.00     0.168 C 
HETATM    4  C   UNL     1      61.097   7.055   4.412  1.00  0.00     0.168 C 
HETATM    5  C   UNL     1      62.844   9.141   3.489  1.00  0.00     0.040 C 
HETATM    6  C   UNL     1      62.320   7.417   5.241  1.00  0.00     0.040 C 
ENDROOT
BRANCH   1   7
HETATM    7  C   UNL     1      64.574   8.529   5.198  1.00  0.00     0.223 C 
HETATM    8  N   UNL     1      65.637   7.670   5.453  1.00  0.00    -0.360 N 
HETATM    9  C   UNL     1      66.746   8.143   6.269  1.00  0.00     0.152 C 
HETATM   10  C   UNL     1      65.743   6.320   4.927  1.00  0.00     0.152 C 
HETATM   11  O   UNL     1      64.533   9.664   5.668  1.00  0.00    -0.273 OA
ENDBRANCH   1   7
TORSDOF 1
ENDMDL
MODEL 8
REMARK VINA RESULT:      -3.6      2.033      4.777
REMARK  1 active torsions:
REMARK  status: ('A' for Active; 'I' for Inactive)
REMARK       I    between atoms: C_1  and  N_2 
REMARK    1  A    between atoms: C_1  and  C_4 
ROOT
HETATM    1  C   UNL     1      64.777   8.129   5.423  1.00  0.00     0.082 C 
HETATM    2  O   UNL     1      66.659   6.398   6.738  1.00  0.00    -0.391 OA
HETATM    3  C   UNL     1      67.145   7.531   6.021  1.00  0.00     0.168 C 
HETATM    4  C   UNL     1      65.388   6.635   7.338  1.00  0.00     0.168 C 
HETATM    5  C   UNL     1      66.199   7.906   4.892  1.00  0.00     0.040 C 
HETATM    6  C   UNL     1      64.339   6.938   6.278  1.00  0.00     0.040 C 
ENDROOT
BRANCH   1   7
HETATM    7  C   UNL     1      63.811   8.326   4.250  1.00  0.00     0.223 C 
HETATM    8  N   UNL     1      62.965   9.428   4.281  1.00  0.00    -0.360 N 
HETATM    9  C   UNL     1      62.030   9.631   3.182  1.00  0.00     0.152 C 
HETATM   10  C   UNL     1      62.965  10.432   5.330  1.00  0.00     0.152 C 
HETATM   11  O   UNL     1      63.770   7.504   3.337  1.00  0.00    -0.273 OA
ENDBRANCH   1   7
TORSDOF 1
ENDMDL
MODEL 9
REMARK VINA RESULT:      -3.5      2.756      4.183
REMARK  1 active torsions:
REMARK  status: ('A' for Active; 'I' for Inactive)
REMARK       I    between atoms: C_1  and  N_2 
REMARK    1  A    between atoms: C_1  and  C_4 
ROOT
HETATM    1  C   UNL     1      62.550   8.776   3.292  1.00  0.00     0.082 C 
HETATM    2  O   UNL     1      63.320  10.092   5.730  1.00  0.00    -0.391 OA
HETATM    3  C   UNL     1      64.190   9.113   5.167  1.00  0.00     0.168 C 
HETATM    4  C   UNL     1      62.604  10.822   4.736  1.00  0.00     0.168 C 
HETATM    5  C   UNL     1      63.407   8.088   4.361  1.00  0.00     0.040 C 
HETATM    6  C   UNL     1      61.715   9.893   3.921  1.00  0.00     0.040 C 
ENDROOT
BRANCH   1   7
HETATM    7  C   UNL     1      61.638   7.746   2.618  1.00  0.00     0.223 C 
HETATM    8  N   UNL     1      61.534   7.773   1.232  1.00  0.00    -0.360 N 
HETATM    9  C   UNL     1      60.665   6.811   0.570  1.00  0.00     0.152 C 
HETATM   10  C   UNL     1      62.269   8.686   0.374  1.00  0.00     0.152 C 
HETATM   11  O   UNL     1      60.992   6.951   3.299  1.00  0.00    -0.273 OA
ENDBRANCH   1   7
TORSDOF 1
ENDMDL
