MODEL 1
REMARK VINA RESULT:      -5.3      0.000      0.000
REMARK  2 active torsions:
REMARK  status: ('A' for Active; 'I' for Inactive)
REMARK    1  A    between atoms: C_4  and  N_15 
REMARK    2  A    between atoms: C_5  and  C_8 
ROOT
HETATM    1  C   UNL     1      62.890  10.009   4.476  1.00  0.00     0.046 A 
HETATM    2  N   UNL     1      62.039  12.117   4.599  1.00  0.00    -0.244 N 
ATOM      3  HN  UNL     1      61.803  13.053   4.930  1.00  0.00     0.196 HD
HETATM    4  C   UNL     1      62.765  11.196   5.237  1.00  0.00     0.132 A 
HETATM    5  C   UNL     1      63.504   8.752   4.616  1.00  0.00     0.034 A 
HETATM    6  O   UNL     1      61.674  11.539   3.392  1.00  0.00    -0.235 OA
HETATM    7  C   UNL     1      63.384   7.808   3.575  1.00  0.00     0.049 A 
HETATM    8  C   UNL     1      62.183  10.280   3.319  1.00  0.00     0.113 A 
HETATM    9  C   UNL     1      62.652   8.136   2.416  1.00  0.00     0.019 A 
HETATM   10  C   UNL     1      62.033   9.385   2.264  1.00  0.00     0.041 A 
ENDROOT
BRANCH   7  11
HETATM   11  C   UNL     1      64.038   6.452   3.704  1.00  0.00     0.417 C 
HETATM   12  F   UNL     1      64.804   6.327   4.825  1.00  0.00    -0.166 F 
HETATM   13  F   UNL     1      63.131   5.439   3.760  1.00  0.00    -0.166 F 
HETATM   14  F   UNL     1      64.860   6.166   2.658  1.00  0.00    -0.166 F 
ENDBRANCH   7  11
BRANCH   4  15
HETATM   15  N   UNL     1      63.317  11.362   6.450  1.00  0.00    -0.383 N 
HETATM   16  H   UNL     1      63.150  12.189   6.957  1.00  0.00     0.157 HD
HETATM   17  H   UNL     1      63.889  10.657   6.832  1.00  0.00     0.157 HD
ENDBRANCH   4  15
TORSDOF 2
ENDMDL
MODEL 2
REMARK VINA RESULT:      -5.2      3.807      4.622
REMARK  2 active torsions:
REMARK  status: ('A' for Active; 'I' for Inactive)
REMARK    1  A    between atoms: C_4  and  N_15 
REMARK    2  A    between atoms: C_5  and  C_8 
ROOT
HETATM    1  C   UNL     1      65.202   8.061   5.123  1.00  0.00     0.046 A 
HETATM    2  N   UNL     1      66.908   6.622   5.574  1.00  0.00    -0.244 N 
ATOM      3  HN  UNL     1      67.731   6.191   5.995  1.00  0.00     0.196 HD
HETATM    4  C   UNL     1      66.327   7.769   5.931  1.00  0.00     0.132 A 
HETATM    5  C   UNL     1      64.237   9.078   5.024  1.00  0.00     0.034 A 
HETATM    6  O   UNL     1      66.160   6.136   4.512  1.00  0.00    -0.235 OA
HETATM    7  C   UNL     1      63.237   8.983   4.034  1.00  0.00     0.049 A 
HETATM    8  C   UNL     1      65.140   6.996   4.243  1.00  0.00     0.113 A 
HETATM    9  C   UNL     1      63.219   7.875   3.163  1.00  0.00     0.019 A 
HETATM   10  C   UNL     1      64.175   6.854   3.250  1.00  0.00     0.041 A 
ENDROOT
BRANCH   7  11
HETATM   11  C   UNL     1      62.188  10.065   3.911  1.00  0.00     0.417 C 
HETATM   12  F   UNL     1      62.253  10.993   4.907  1.00  0.00    -0.166 F 
HETATM   13  F   UNL     1      62.292  10.761   2.748  1.00  0.00    -0.166 F 
HETATM   14  F   UNL     1      60.921   9.571   3.946  1.00  0.00    -0.166 F 
ENDBRANCH   7  11
BRANCH   4  15
HETATM   15  N   UNL     1      66.746   8.560   6.933  1.00  0.00    -0.383 N 
HETATM   16  H   UNL     1      67.594   9.052   6.850  1.00  0.00     0.157 HD
HETATM   17  H   UNL     1      66.204   8.647   7.751  1.00  0.00     0.157 HD
ENDBRANCH   4  15
TORSDOF 2
ENDMDL
MODEL 3
REMARK VINA RESULT:      -5.2      1.940      2.906
REMARK  2 active torsions:
REMARK  status: ('A' for Active; 'I' for Inactive)
REMARK    1  A    between atoms: C_4  and  N_15 
REMARK    2  A    between atoms: C_5  and  C_8 
ROOT
HETATM    1  C   UNL     1      62.416   9.689   3.128  1.00  0.00     0.046 A 
HETATM    2  N   UNL     1      61.369  11.276   1.876  1.00  0.00    -0.244 N 
ATOM      3  HN  UNL     1      60.907  11.758   1.105  1.00  0.00     0.196 HD
HETATM    4  C   UNL     1      61.834  10.025   1.882  1.00  0.00     0.132 A 
HETATM    5  C   UNL     1      63.044   8.572   3.707  1.00  0.00     0.034 A 
HETATM    6  O   UNL     1      61.643  11.785   3.137  1.00  0.00    -0.235 OA
HETATM    7  C   UNL     1      63.501   8.653   5.038  1.00  0.00     0.049 A 
HETATM    8  C   UNL     1      62.268  10.836   3.885  1.00  0.00     0.113 A 
HETATM    9  C   UNL     1      63.323   9.847   5.766  1.00  0.00     0.019 A 
HETATM   10  C   UNL     1      62.700  10.969   5.201  1.00  0.00     0.041 A 
ENDROOT
BRANCH   7  11
HETATM   11  C   UNL     1      64.177   7.464   5.681  1.00  0.00     0.417 C 
HETATM   12  F   UNL     1      65.336   7.784   6.322  1.00  0.00    -0.166 F 
HETATM   13  F   UNL     1      63.392   6.859   6.613  1.00  0.00    -0.166 F 
HETATM   14  F   UNL     1      64.505   6.499   4.779  1.00  0.00    -0.166 F 
ENDBRANCH   7  11
BRANCH   4  15
HETATM   15  N   UNL     1      61.762   9.177   0.843  1.00  0.00    -0.383 N 
HETATM   16  H   UNL     1      61.303   9.451   0.016  1.00  0.00     0.157 HD
HETATM   17  H   UNL     1      62.169   8.283   0.908  1.00  0.00     0.157 HD
ENDBRANCH   4  15
TORSDOF 2
ENDMDL
MODEL 4
REMARK VINA RESULT:      -5.1      1.867      2.506
REMARK  2 active torsions:
REMARK  status: ('A' for Active; 'I' for Inactive)
REMARK    1  A    between atoms: C_4  and  N_15 
REMARK    2  A    between atoms: C_5  and  C_8 
ROOT
HETATM    1  C   UNL     1      63.894   9.328   4.961  1.00  0.00     0.046 A 
HETATM    2  N   UNL     1      62.146  10.691   4.439  1.00  0.00    -0.244 N 
ATOM      3  HN  UNL     1      61.486  11.469   4.437  1.00  0.00     0.196 HD
HETATM    4  C   UNL     1      63.200  10.530   5.242  1.00  0.00     0.132 A 
HETATM    5  C   UNL     1      65.024   8.649   5.450  1.00  0.00     0.034 A 
HETATM    6  O   UNL     1      62.135   9.581   3.607  1.00  0.00    -0.235 OA
HETATM    7  C   UNL     1      65.395   7.422   4.864  1.00  0.00     0.049 A 
HETATM    8  C   UNL     1      63.180   8.768   3.919  1.00  0.00     0.113 A 
HETATM    9  C   UNL     1      64.632   6.895   3.803  1.00  0.00     0.019 A 
HETATM   10  C   UNL     1      63.502   7.561   3.306  1.00  0.00     0.041 A 
ENDROOT
BRANCH   7  11
HETATM   11  C   UNL     1      66.607   6.676   5.373  1.00  0.00     0.417 C 
HETATM   12  F   UNL     1      66.294   5.637   6.199  1.00  0.00    -0.166 F 
HETATM   13  F   UNL     1      67.350   6.140   4.368  1.00  0.00    -0.166 F 
HETATM   14  F   UNL     1      67.451   7.473   6.084  1.00  0.00    -0.166 F 
ENDBRANCH   7  11
BRANCH   4  15
HETATM   15  N   UNL     1      63.571  11.395   6.200  1.00  0.00    -0.383 N 
HETATM   16  H   UNL     1      63.956  12.267   5.953  1.00  0.00     0.157 HD
HETATM   17  H   UNL     1      63.458  11.158   7.149  1.00  0.00     0.157 HD
ENDBRANCH   4  15
TORSDOF 2
ENDMDL
MODEL 5
REMARK VINA RESULT:      -5.0      2.978      3.851
REMARK  2 active torsions:
REMARK  status: ('A' for Active; 'I' for Inactive)
REMARK    1  A    between atoms: C_4  and  N_15 
REMARK    2  A    between atoms: C_5  and  C_8 
ROOT
HETATM    1  C   UNL     1      63.894   8.371   4.139  1.00  0.00     0.046 A 
HETATM    2  N   UNL     1      65.241   8.770   5.932  1.00  0.00    -0.244 N 
ATOM      3  HN  UNL     1      65.974   8.683   6.636  1.00  0.00     0.196 HD
HETATM    4  C   UNL     1      64.994   7.936   4.919  1.00  0.00     0.132 A 
HETATM    5  C   UNL     1      63.197   7.929   3.002  1.00  0.00     0.034 A 
HETATM    6  O   UNL     1      64.294   9.778   5.828  1.00  0.00    -0.235 OA
HETATM    7  C   UNL     1      62.110   8.690   2.524  1.00  0.00     0.049 A 
HETATM    8  C   UNL     1      63.491   9.540   4.757  1.00  0.00     0.113 A 
HETATM    9  C   UNL     1      61.740   9.875   3.191  1.00  0.00     0.019 A 
HETATM   10  C   UNL     1      62.426  10.326   4.327  1.00  0.00     0.041 A 
ENDROOT
BRANCH   7  11
HETATM   11  C   UNL     1      61.346   8.235   1.302  1.00  0.00     0.417 C 
HETATM   12  F   UNL     1      60.332   9.077   0.955  1.00  0.00    -0.166 F 
HETATM   13  F   UNL     1      62.138   8.135   0.200  1.00  0.00    -0.166 F 
HETATM   14  F   UNL     1      60.774   7.012   1.468  1.00  0.00    -0.166 F 
ENDBRANCH   7  11
BRANCH   4  15
HETATM   15  N   UNL     1      65.695   6.821   4.657  1.00  0.00    -0.383 N 
HETATM   16  H   UNL     1      66.413   6.838   3.983  1.00  0.00     0.157 HD
HETATM   17  H   UNL     1      65.492   5.987   5.139  1.00  0.00     0.157 HD
ENDBRANCH   4  15
TORSDOF 2
ENDMDL
MODEL 6
REMARK VINA RESULT:      -4.8      1.439      2.352
REMARK  2 active torsions:
REMARK  status: ('A' for Active; 'I' for Inactive)
REMARK    1  A    between atoms: C_4  and  N_15 
REMARK    2  A    between atoms: C_5  and  C_8 
ROOT
HETATM    1  C   UNL     1      62.594   9.712   3.477  1.00  0.00     0.046 A 
HETATM    2  N   UNL     1      62.240  11.652   4.615  1.00  0.00    -0.244 N 
ATOM      3  HN  UNL     1      61.945  12.599   4.855  1.00  0.00     0.196 HD
HETATM    4  C   UNL     1      62.049  11.019   3.456  1.00  0.00     0.132 A 
HETATM    5  C   UNL     1      62.700   8.622   2.595  1.00  0.00     0.034 A 
HETATM    6  O   UNL     1      62.922  10.756   5.425  1.00  0.00    -0.235 OA
HETATM    7  C   UNL     1      63.348   7.448   3.029  1.00  0.00     0.049 A 
HETATM    8  C   UNL     1      63.132   9.597   4.745  1.00  0.00     0.113 A 
HETATM    9  C   UNL     1      63.879   7.383   4.332  1.00  0.00     0.019 A 
HETATM   10  C   UNL     1      63.782   8.463   5.222  1.00  0.00     0.041 A 
ENDROOT
BRANCH   7  11
HETATM   11  C   UNL     1      63.472   6.264   2.097  1.00  0.00     0.417 C 
HETATM   12  F   UNL     1      64.689   5.654   2.160  1.00  0.00    -0.166 F 
HETATM   13  F   UNL     1      62.556   5.294   2.362  1.00  0.00    -0.166 F 
HETATM   14  F   UNL     1      63.294   6.605   0.792  1.00  0.00    -0.166 F 
ENDBRANCH   7  11
BRANCH   4  15
HETATM   15  N   UNL     1      61.416  11.542   2.393  1.00  0.00    -0.383 N 
HETATM   16  H   UNL     1      60.455  11.372   2.260  1.00  0.00     0.157 HD
HETATM   17  H   UNL     1      61.912  12.095   1.747  1.00  0.00     0.157 HD
ENDBRANCH   4  15
TORSDOF 2
ENDMDL
MODEL 7
REMARK VINA RESULT:      -4.6      3.929      4.711
REMARK  2 active torsions:
REMARK  status: ('A' for Active; 'I' for Inactive)
REMARK    1  A    between atoms: C_4  and  N_15 
REMARK    2  A    between atoms: C_5  and  C_8 
ROOT
HETATM    1  C   UNL     1      61.529   7.210   4.638  1.00  0.00     0.046 A 
HETATM    2  N   UNL     1      61.667   6.022   6.575  1.00  0.00    -0.244 N 
ATOM      3  HN  UNL     1      61.515   5.316   7.296  1.00  0.00     0.196 HD
HETATM    4  C   UNL     1      61.075   6.094   5.381  1.00  0.00     0.132 A 
HETATM    5  C   UNL     1      61.282   7.782   3.377  1.00  0.00     0.034 A 
HETATM    6  O   UNL     1      62.532   7.105   6.632  1.00  0.00    -0.235 OA
HETATM    7  C   UNL     1      61.979   8.949   3.003  1.00  0.00     0.049 A 
HETATM    8  C   UNL     1      62.450   7.814   5.474  1.00  0.00     0.113 A 
HETATM    9  C   UNL     1      62.908   9.523   3.893  1.00  0.00     0.019 A 
HETATM   10  C   UNL     1      63.164   8.965   5.154  1.00  0.00     0.041 A 
ENDROOT
BRANCH   7  11
HETATM   11  C   UNL     1      61.730   9.579   1.652  1.00  0.00     0.417 C 
HETATM   12  F   UNL     1      61.635  10.938   1.700  1.00  0.00    -0.166 F 
HETATM   13  F   UNL     1      62.720   9.307   0.759  1.00  0.00    -0.166 F 
HETATM   14  F   UNL     1      60.575   9.145   1.078  1.00  0.00    -0.166 F 
ENDBRANCH   7  11
BRANCH   4  15
HETATM   15  N   UNL     1      60.161   5.221   4.926  1.00  0.00    -0.383 N 
HETATM   16  H   UNL     1      60.440   4.474   4.349  1.00  0.00     0.157 HD
HETATM   17  H   UNL     1      59.213   5.329   5.169  1.00  0.00     0.157 HD
ENDBRANCH   4  15
TORSDOF 2
ENDMDL
MODEL 8
REMARK VINA RESULT:      -4.5      2.555      3.382
REMARK  2 active torsions:
REMARK  status: ('A' for Active; 'I' for Inactive)
REMARK    1  A    between atoms: C_4  and  N_15 
REMARK    2  A    between atoms: C_5  and  C_8 
ROOT
HETATM    1  C   UNL     1      62.581   8.628   4.185  1.00  0.00     0.046 A 
HETATM    2  N   UNL     1      60.429   8.746   3.451  1.00  0.00    -0.244 N 
ATOM      3  HN  UNL     1      59.556   9.088   3.049  1.00  0.00     0.196 HD
HETATM    4  C   UNL     1      61.575   9.418   3.579  1.00  0.00     0.132 A 
HETATM    5  C   UNL     1      63.926   8.780   4.564  1.00  0.00     0.034 A 
HETATM    6  O   UNL     1      60.671   7.486   3.979  1.00  0.00    -0.235 OA
HETATM    7  C   UNL     1      64.598   7.696   5.166  1.00  0.00     0.049 A 
HETATM    8  C   UNL     1      61.957   7.416   4.416  1.00  0.00     0.113 A 
HETATM    9  C   UNL     1      63.915   6.482   5.378  1.00  0.00     0.019 A 
HETATM   10  C   UNL     1      62.573   6.316   5.006  1.00  0.00     0.041 A 
ENDROOT
BRANCH   7  11
HETATM   11  C   UNL     1      66.044   7.838   5.580  1.00  0.00     0.417 C 
HETATM   12  F   UNL     1      66.576   6.688   6.083  1.00  0.00    -0.166 F 
HETATM   13  F   UNL     1      66.850   8.198   4.545  1.00  0.00    -0.166 F 
HETATM   14  F   UNL     1      66.222   8.783   6.544  1.00  0.00    -0.166 F 
ENDBRANCH   7  11
BRANCH   4  15
HETATM   15  N   UNL     1      61.766  10.687   3.182  1.00  0.00    -0.383 N 
HETATM   16  H   UNL     1      61.637  11.426   3.820  1.00  0.00     0.157 HD
HETATM   17  H   UNL     1      62.036  10.878   2.254  1.00  0.00     0.157 HD
ENDBRANCH   4  15
TORSDOF 2
ENDMDL
MODEL 9
REMARK VINA RESULT:      -4.4      3.223      4.020
REMARK  2 active torsions:
REMARK  status: ('A' for Active; 'I' for Inactive)
REMARK    1  A    between atoms: C_4  and  N_15 
REMARK    2  A    between atoms: C_5  and  C_8 
ROOT
HETATM    1  C   UNL     1      63.830   7.453   5.680  1.00  0.00     0.046 A 
HETATM    2  N   UNL     1      65.856   8.147   6.454  1.00  0.00    -0.244 N 
ATOM      3  HN  UNL     1      66.757   8.174   6.930  1.00  0.00     0.196 HD
HETATM    4  C   UNL     1      64.979   7.140   6.446  1.00  0.00     0.132 A 
HETATM    5  C   UNL     1      62.625   6.823   5.321  1.00  0.00     0.034 A 
HETATM    6  O   UNL     1      65.286   9.148   5.682  1.00  0.00    -0.235 OA
HETATM    7  C   UNL     1      61.707   7.513   4.502  1.00  0.00     0.049 A 
HETATM    8  C   UNL     1      64.076   8.732   5.219  1.00  0.00     0.113 A 
HETATM    9  C   UNL     1      62.008   8.816   4.059  1.00  0.00     0.019 A 
HETATM   10  C   UNL     1      63.205   9.456   4.410  1.00  0.00     0.041 A 
ENDROOT
BRANCH   7  11
HETATM   11  C   UNL     1      60.407   6.854   4.103  1.00  0.00     0.417 C 
HETATM   12  F   UNL     1      59.769   6.247   5.144  1.00  0.00    -0.166 F 
HETATM   13  F   UNL     1      59.512   7.738   3.585  1.00  0.00    -0.166 F 
HETATM   14  F   UNL     1      60.577   5.890   3.158  1.00  0.00    -0.166 F 
ENDBRANCH   7  11
BRANCH   4  15
HETATM   15  N   UNL     1      65.154   5.968   7.078  1.00  0.00    -0.383 N 
HETATM   16  H   UNL     1      64.915   5.882   8.030  1.00  0.00     0.157 HD
HETATM   17  H   UNL     1      65.519   5.194   6.590  1.00  0.00     0.157 HD
ENDBRANCH   4  15
TORSDOF 2
ENDMDL
