MODEL 1
REMARK VINA RESULT:      -5.6      0.000      0.000
REMARK  2 active torsions:
REMARK  status: ('A' for Active; 'I' for Inactive)
REMARK    1  A    between atoms: S_1  and  C_2 
REMARK    2  A    between atoms: S_1  and  N_5 
ROOT
HETATM    1  S   UNL     1      63.319   7.666   5.760  1.00  0.00     0.260 S 
HETATM    2  O   UNL     1      63.015   6.703   4.720  1.00  0.00    -0.204 OA
HETATM    3  O   UNL     1      62.612   7.660   7.023  1.00  0.00    -0.204 OA
ENDROOT
BRANCH   1   4
HETATM    4  C   UNL     1      62.881   9.202   5.042  1.00  0.00     0.160 A 
HETATM    5  N   UNL     1      62.904  10.414   5.722  1.00  0.00    -0.341 N 
HETATM    6  C   UNL     1      62.514  11.308   4.842  1.00  0.00     0.183 A 
ATOM      7  HN  UNL     1      63.167  10.575   6.695  1.00  0.00     0.167 HD
HETATM    8  N   UNL     1      62.226  10.733   3.637  1.00  0.00    -0.354 N 
HETATM    9  C   UNL     1      62.466   9.393   3.738  1.00  0.00     0.134 A 
HETATM   10  C   UNL     1      61.733  11.413   2.466  1.00  0.00     0.156 C 
ENDBRANCH   1   4
BRANCH   1  11
HETATM   11  N   UNL     1      65.007   7.624   6.072  1.00  0.00    -0.205 NA
HETATM   12  C   UNL     1      65.844   7.522   4.849  1.00  0.00     0.107 C 
HETATM   13  C   UNL     1      67.317   7.712   5.200  1.00  0.00     0.015 C 
HETATM   14  C   UNL     1      67.761   6.723   6.270  1.00  0.00     0.002 C 
HETATM   15  C   UNL     1      66.870   6.848   7.501  1.00  0.00     0.015 C 
HETATM   16  C   UNL     1      65.400   6.663   7.137  1.00  0.00     0.107 C 
ENDBRANCH   1  11
TORSDOF 2
ENDMDL
MODEL 2
REMARK VINA RESULT:      -5.3      0.942      1.418
REMARK  2 active torsions:
REMARK  status: ('A' for Active; 'I' for Inactive)
REMARK    1  A    between atoms: S_1  and  C_2 
REMARK    2  A    between atoms: S_1  and  N_5 
ROOT
HETATM    1  S   UNL     1      63.160   7.551   5.539  1.00  0.00     0.260 S 
HETATM    2  O   UNL     1      62.407   6.657   4.682  1.00  0.00    -0.204 OA
HETATM    3  O   UNL     1      62.869   7.662   6.953  1.00  0.00    -0.204 OA
ENDROOT
BRANCH   1   4
HETATM    4  C   UNL     1      62.784   9.142   4.909  1.00  0.00     0.160 A 
HETATM    5  N   UNL     1      62.866  10.313   5.652  1.00  0.00    -0.341 N 
HETATM    6  C   UNL     1      62.509  11.269   4.824  1.00  0.00     0.183 A 
ATOM      7  HN  UNL     1      63.143  10.410   6.629  1.00  0.00     0.167 HD
HETATM    8  N   UNL     1      62.187  10.772   3.593  1.00  0.00    -0.354 N 
HETATM    9  C   UNL     1      62.368   9.420   3.620  1.00  0.00     0.134 A 
HETATM   10  C   UNL     1      61.715  11.535   2.465  1.00  0.00     0.156 C 
ENDBRANCH   1   4
BRANCH   1  11
HETATM   11  N   UNL     1      64.833   7.222   5.343  1.00  0.00    -0.205 NA
HETATM   12  C   UNL     1      65.723   8.291   5.865  1.00  0.00     0.107 C 
HETATM   13  C   UNL     1      67.176   7.821   5.851  1.00  0.00     0.015 C 
HETATM   14  C   UNL     1      67.595   7.368   4.458  1.00  0.00     0.002 C 
HETATM   15  C   UNL     1      66.650   6.284   3.952  1.00  0.00     0.015 C 
HETATM   16  C   UNL     1      65.201   6.761   3.978  1.00  0.00     0.107 C 
ENDBRANCH   1  11
TORSDOF 2
ENDMDL
MODEL 3
REMARK VINA RESULT:      -5.1      1.806      5.524
REMARK  2 active torsions:
REMARK  status: ('A' for Active; 'I' for Inactive)
REMARK    1  A    between atoms: S_1  and  C_2 
REMARK    2  A    between atoms: S_1  and  N_5 
ROOT
HETATM    1  S   UNL     1      63.747   9.003   5.422  1.00  0.00     0.260 S 
HETATM    2  O   UNL     1      64.354  10.260   5.813  1.00  0.00    -0.204 OA
HETATM    3  O   UNL     1      62.718   8.380   6.227  1.00  0.00    -0.204 OA
ENDROOT
BRANCH   1   4
HETATM    4  C   UNL     1      65.077   7.864   5.488  1.00  0.00     0.160 A 
HETATM    5  N   UNL     1      66.218   7.954   4.701  1.00  0.00    -0.341 N 
HETATM    6  C   UNL     1      66.958   6.927   5.052  1.00  0.00     0.183 A 
ATOM      7  HN  UNL     1      66.435   8.664   4.001  1.00  0.00     0.167 HD
HETATM    8  N   UNL     1      66.345   6.172   6.012  1.00  0.00    -0.354 N 
HETATM    9  C   UNL     1      65.151   6.759   6.315  1.00  0.00     0.134 A 
HETATM   10  C   UNL     1      66.855   4.955   6.592  1.00  0.00     0.156 C 
ENDBRANCH   1   4
BRANCH   1  11
HETATM   11  N   UNL     1      63.176   9.146   3.809  1.00  0.00    -0.205 NA
HETATM   12  C   UNL     1      62.155  10.208   3.623  1.00  0.00     0.107 C 
HETATM   13  C   UNL     1      61.870  10.412   2.137  1.00  0.00     0.015 C 
HETATM   14  C   UNL     1      61.452   9.107   1.472  1.00  0.00     0.002 C 
HETATM   15  C   UNL     1      62.517   8.040   1.698  1.00  0.00     0.015 C 
HETATM   16  C   UNL     1      62.799   7.849   3.185  1.00  0.00     0.107 C 
ENDBRANCH   1  11
TORSDOF 2
ENDMDL
MODEL 4
REMARK VINA RESULT:      -4.8      1.864      2.664
REMARK  2 active torsions:
REMARK  status: ('A' for Active; 'I' for Inactive)
REMARK    1  A    between atoms: S_1  and  C_2 
REMARK    2  A    between atoms: S_1  and  N_5 
ROOT
HETATM    1  S   UNL     1      64.142   8.205   5.699  1.00  0.00     0.260 S 
HETATM    2  O   UNL     1      63.019   7.873   6.554  1.00  0.00    -0.204 OA
HETATM    3  O   UNL     1      64.734   9.526   5.712  1.00  0.00    -0.204 OA
ENDROOT
BRANCH   1   4
HETATM    4  C   UNL     1      63.489   8.054   4.081  1.00  0.00     0.160 A 
HETATM    5  N   UNL     1      63.604   6.911   3.300  1.00  0.00    -0.341 N 
HETATM    6  C   UNL     1      62.989   7.202   2.175  1.00  0.00     0.183 A 
ATOM      7  HN  UNL     1      64.065   6.035   3.545  1.00  0.00     0.167 HD
HETATM    8  N   UNL     1      62.499   8.477   2.187  1.00  0.00    -0.354 N 
HETATM    9  C   UNL     1      62.795   9.034   3.397  1.00  0.00     0.134 A 
HETATM   10  C   UNL     1      61.810   9.134   1.105  1.00  0.00     0.156 C 
ENDBRANCH   1   4
BRANCH   1  11
HETATM   11  N   UNL     1      65.381   7.042   5.944  1.00  0.00    -0.205 NA
HETATM   12  C   UNL     1      65.516   6.593   7.353  1.00  0.00     0.107 C 
HETATM   13  C   UNL     1      66.479   5.411   7.440  1.00  0.00     0.015 C 
HETATM   14  C   UNL     1      67.830   5.755   6.826  1.00  0.00     0.002 C 
HETATM   15  C   UNL     1      67.648   6.225   5.388  1.00  0.00     0.015 C 
HETATM   16  C   UNL     1      66.679   7.401   5.312  1.00  0.00     0.107 C 
ENDBRANCH   1  11
TORSDOF 2
ENDMDL
MODEL 5
REMARK VINA RESULT:      -4.8      1.363      5.462
REMARK  2 active torsions:
REMARK  status: ('A' for Active; 'I' for Inactive)
REMARK    1  A    between atoms: S_1  and  C_2 
REMARK    2  A    between atoms: S_1  and  N_5 
ROOT
HETATM    1  S   UNL     1      63.375   7.069   5.542  1.00  0.00     0.260 S 
HETATM    2  O   UNL     1      62.425   7.035   6.637  1.00  0.00    -0.204 OA
HETATM    3  O   UNL     1      63.536   5.941   4.649  1.00  0.00    -0.204 OA
ENDROOT
BRANCH   1   4
HETATM    4  C   UNL     1      64.927   7.193   6.345  1.00  0.00     0.160 A 
HETATM    5  N   UNL     1      65.939   8.061   5.953  1.00  0.00    -0.341 N 
HETATM    6  C   UNL     1      66.919   7.848   6.802  1.00  0.00     0.183 A 
ATOM      7  HN  UNL     1      65.924   8.721   5.175  1.00  0.00     0.167 HD
HETATM    8  N   UNL     1      66.597   6.878   7.708  1.00  0.00    -0.354 N 
HETATM    9  C   UNL     1      65.327   6.456   7.444  1.00  0.00     0.134 A 
HETATM   10  C   UNL     1      67.454   6.369   8.749  1.00  0.00     0.156 C 
ENDBRANCH   1   4
BRANCH   1  11
HETATM   11  N   UNL     1      63.084   8.479   4.606  1.00  0.00    -0.205 NA
HETATM   12  C   UNL     1      62.653   9.654   5.405  1.00  0.00     0.107 C 
HETATM   13  C   UNL     1      62.632  10.907   4.531  1.00  0.00     0.015 C 
HETATM   14  C   UNL     1      61.754  10.707   3.303  1.00  0.00     0.002 C 
HETATM   15  C   UNL     1      62.218   9.484   2.520  1.00  0.00     0.015 C 
HETATM   16  C   UNL     1      62.242   8.241   3.404  1.00  0.00     0.107 C 
ENDBRANCH   1  11
TORSDOF 2
ENDMDL
MODEL 6
REMARK VINA RESULT:      -4.5      3.489      5.444
REMARK  2 active torsions:
REMARK  status: ('A' for Active; 'I' for Inactive)
REMARK    1  A    between atoms: S_1  and  C_2 
REMARK    2  A    between atoms: S_1  and  N_5 
ROOT
HETATM    1  S   UNL     1      62.559   7.523   4.957  1.00  0.00     0.260 S 
HETATM    2  O   UNL     1      63.373   6.567   4.232  1.00  0.00    -0.204 OA
HETATM    3  O   UNL     1      63.038   8.158   6.166  1.00  0.00    -0.204 OA
ENDROOT
BRANCH   1   4
HETATM    4  C   UNL     1      61.189   6.575   5.496  1.00  0.00     0.160 A 
HETATM    5  N   UNL     1      61.081   6.015   6.764  1.00  0.00    -0.341 N 
HETATM    6  C   UNL     1      59.922   5.395   6.766  1.00  0.00     0.183 A 
ATOM      7  HN  UNL     1      61.755   6.073   7.527  1.00  0.00     0.167 HD
HETATM    8  N   UNL     1      59.288   5.513   5.563  1.00  0.00    -0.354 N 
HETATM    9  C   UNL     1      60.070   6.272   4.743  1.00  0.00     0.134 A 
HETATM   10  C   UNL     1      58.022   4.922   5.207  1.00  0.00     0.156 C 
ENDBRANCH   1   4
BRANCH   1  11
HETATM   11  N   UNL     1      62.036   8.740   3.863  1.00  0.00    -0.205 NA
HETATM   12  C   UNL     1      62.269   8.407   2.435  1.00  0.00     0.107 C 
HETATM   13  C   UNL     1      61.582   9.431   1.535  1.00  0.00     0.015 C 
HETATM   14  C   UNL     1      62.037  10.847   1.866  1.00  0.00     0.002 C 
HETATM   15  C   UNL     1      61.796  11.145   3.341  1.00  0.00     0.015 C 
HETATM   16  C   UNL     1      62.480  10.111   4.230  1.00  0.00     0.107 C 
ENDBRANCH   1  11
TORSDOF 2
ENDMDL
MODEL 7
REMARK VINA RESULT:      -4.2      2.682      5.120
REMARK  2 active torsions:
REMARK  status: ('A' for Active; 'I' for Inactive)
REMARK    1  A    between atoms: S_1  and  C_2 
REMARK    2  A    between atoms: S_1  and  N_5 
ROOT
HETATM    1  S   UNL     1      63.126   8.793   4.837  1.00  0.00     0.260 S 
HETATM    2  O   UNL     1      63.182   9.001   3.403  1.00  0.00    -0.204 OA
HETATM    3  O   UNL     1      63.019   9.906   5.756  1.00  0.00    -0.204 OA
ENDROOT
BRANCH   1   4
HETATM    4  C   UNL     1      64.684   8.087   5.213  1.00  0.00     0.160 A 
HETATM    5  N   UNL     1      65.522   8.544   6.224  1.00  0.00    -0.341 N 
HETATM    6  C   UNL     1      66.572   7.756   6.180  1.00  0.00     0.183 A 
ATOM      7  HN  UNL     1      65.356   9.323   6.862  1.00  0.00     0.167 HD
HETATM    8  N   UNL     1      66.462   6.828   5.184  1.00  0.00    -0.354 N 
HETATM    9  C   UNL     1      65.260   7.011   4.564  1.00  0.00     0.134 A 
HETATM   10  C   UNL     1      67.448   5.838   4.831  1.00  0.00     0.156 C 
ENDBRANCH   1   4
BRANCH   1  11
HETATM   11  N   UNL     1      61.874   7.669   5.180  1.00  0.00    -0.205 NA
HETATM   12  C   UNL     1      62.142   6.811   6.362  1.00  0.00     0.107 C 
HETATM   13  C   UNL     1      60.896   6.006   6.723  1.00  0.00     0.015 C 
HETATM   14  C   UNL     1      60.404   5.190   5.534  1.00  0.00     0.002 C 
HETATM   15  C   UNL     1      60.155   6.103   4.339  1.00  0.00     0.015 C 
HETATM   16  C   UNL     1      61.404   6.908   3.992  1.00  0.00     0.107 C 
ENDBRANCH   1  11
TORSDOF 2
ENDMDL
MODEL 8
REMARK VINA RESULT:      -4.1      7.076      9.151
REMARK  2 active torsions:
REMARK  status: ('A' for Active; 'I' for Inactive)
REMARK    1  A    between atoms: S_1  and  C_2 
REMARK    2  A    between atoms: S_1  and  N_5 
ROOT
HETATM    1  S   UNL     1      58.932   6.171   8.395  1.00  0.00     0.260 S 
HETATM    2  O   UNL     1      60.222   6.264   7.741  1.00  0.00    -0.204 OA
HETATM    3  O   UNL     1      58.638   6.929   9.593  1.00  0.00    -0.204 OA
ENDROOT
BRANCH   1   4
HETATM    4  C   UNL     1      58.858   4.503   8.927  1.00  0.00     0.160 A 
HETATM    5  N   UNL     1      58.514   4.112  10.214  1.00  0.00    -0.341 N 
HETATM    6  C   UNL     1      58.574   2.799  10.201  1.00  0.00     0.183 A 
ATOM      7  HN  UNL     1      58.267   4.713  11.001  1.00  0.00     0.167 HD
HETATM    8  N   UNL     1      58.954   2.328   8.977  1.00  0.00    -0.354 N 
HETATM    9  C   UNL     1      59.127   3.396   8.145  1.00  0.00     0.134 A 
HETATM   10  C   UNL     1      59.161   0.945   8.624  1.00  0.00     0.156 C 
ENDBRANCH   1   4
BRANCH   1  11
HETATM   11  N   UNL     1      57.704   6.473   7.234  1.00  0.00    -0.205 NA
HETATM   12  C   UNL     1      56.395   5.853   7.565  1.00  0.00     0.107 C 
HETATM   13  C   UNL     1      55.318   6.350   6.605  1.00  0.00     0.015 C 
HETATM   14  C   UNL     1      55.711   6.096   5.156  1.00  0.00     0.002 C 
HETATM   15  C   UNL     1      57.063   6.734   4.860  1.00  0.00     0.015 C 
HETATM   16  C   UNL     1      58.131   6.235   5.829  1.00  0.00     0.107 C 
ENDBRANCH   1  11
TORSDOF 2
ENDMDL
MODEL 9
REMARK VINA RESULT:      -4.0      2.725      3.664
REMARK  2 active torsions:
REMARK  status: ('A' for Active; 'I' for Inactive)
REMARK    1  A    between atoms: S_1  and  C_2 
REMARK    2  A    between atoms: S_1  and  N_5 
ROOT
HETATM    1  S   UNL     1      63.627   8.179   5.302  1.00  0.00     0.260 S 
HETATM    2  O   UNL     1      62.991   9.174   6.144  1.00  0.00    -0.204 OA
HETATM    3  O   UNL     1      63.731   8.360   3.870  1.00  0.00    -0.204 OA
ENDROOT
BRANCH   1   4
HETATM    4  C   UNL     1      62.595   6.774   5.473  1.00  0.00     0.160 A 
HETATM    5  N   UNL     1      61.665   6.610   6.492  1.00  0.00    -0.341 N 
HETATM    6  C   UNL     1      61.107   5.443   6.263  1.00  0.00     0.183 A 
ATOM      7  HN  UNL     1      61.460   7.257   7.255  1.00  0.00     0.167 HD
HETATM    8  N   UNL     1      61.640   4.841   5.159  1.00  0.00    -0.354 N 
HETATM    9  C   UNL     1      62.581   5.677   4.632  1.00  0.00     0.134 A 
HETATM   10  C   UNL     1      61.291   3.540   4.647  1.00  0.00     0.156 C 
ENDBRANCH   1   4
BRANCH   1  11
HETATM   11  N   UNL     1      65.188   7.842   5.933  1.00  0.00    -0.205 NA
HETATM   12  C   UNL     1      66.225   7.630   4.891  1.00  0.00     0.107 C 
HETATM   13  C   UNL     1      67.609   7.558   5.532  1.00  0.00     0.015 C 
HETATM   14  C   UNL     1      67.662   6.481   6.608  1.00  0.00     0.002 C 
HETATM   15  C   UNL     1      66.575   6.725   7.648  1.00  0.00     0.015 C 
HETATM   16  C   UNL     1      65.198   6.803   6.996  1.00  0.00     0.107 C 
ENDBRANCH   1  11
TORSDOF 2
ENDMDL
