MODEL 1
REMARK VINA RESULT:      -4.6      0.000      0.000
REMARK  1 active torsions:
REMARK  status: ('A' for Active; 'I' for Inactive)
REMARK       I    between atoms: C_1  and  N_2 
REMARK    1  A    between atoms: C_1  and  C_3 
ROOT
HETATM    1  C   UNL     1      64.764   7.842   4.469  1.00  0.00     0.248 C 
HETATM    2  N   UNL     1      63.685   8.680   4.273  1.00  0.00    -0.350 N 
HETATM    3  O   UNL     1      64.981   6.890   3.715  1.00  0.00    -0.270 OA
HETATM    4  C   UNL     1      62.735   8.457   3.200  1.00  0.00     0.126 C 
HETATM    5  C   UNL     1      63.401   9.918   4.983  1.00  0.00     0.126 C 
HETATM    6  C   UNL     1      62.154  10.481   4.309  1.00  0.00     0.021 C 
HETATM    7  C   UNL     1      62.167   9.838   2.926  1.00  0.00     0.021 C 
ENDROOT
BRANCH   1   8
HETATM    8  C   UNL     1      65.673   8.143   5.693  1.00  0.00     0.213 C 
HETATM    9  O   UNL     1      65.211   7.532   6.902  1.00  0.00    -0.376 OA
HETATM   10  C   UNL     1      65.330   6.108   6.885  1.00  0.00     0.168 C 
HETATM   11  C   UNL     1      66.785   5.682   6.749  1.00  0.00     0.026 C 
HETATM   12  C   UNL     1      67.416   6.294   5.507  1.00  0.00     0.005 C 
HETATM   13  C   UNL     1      67.147   7.795   5.447  1.00  0.00     0.042 C 
ENDBRANCH   1   8
TORSDOF 1
ENDMDL
MODEL 2
REMARK VINA RESULT:      -4.5      2.026      3.041
REMARK  1 active torsions:
REMARK  status: ('A' for Active; 'I' for Inactive)
REMARK       I    between atoms: C_1  and  N_2 
REMARK    1  A    between atoms: C_1  and  C_3 
ROOT
HETATM    1  C   UNL     1      65.971   7.196   6.898  1.00  0.00     0.248 C 
HETATM    2  N   UNL     1      64.909   7.456   6.056  1.00  0.00    -0.350 N 
HETATM    3  O   UNL     1      67.079   7.704   6.707  1.00  0.00    -0.270 OA
HETATM    4  C   UNL     1      65.054   8.305   4.890  1.00  0.00     0.126 C 
HETATM    5  C   UNL     1      63.524   7.053   6.250  1.00  0.00     0.126 C 
HETATM    6  C   UNL     1      62.765   7.681   5.084  1.00  0.00     0.021 C 
HETATM    7  C   UNL     1      63.653   8.845   4.658  1.00  0.00     0.021 C 
ENDROOT
BRANCH   1   8
HETATM    8  C   UNL     1      65.710   6.217   8.076  1.00  0.00     0.213 C 
HETATM    9  O   UNL     1      65.739   4.841   7.683  1.00  0.00    -0.376 OA
HETATM   10  C   UNL     1      67.046   4.396   7.313  1.00  0.00     0.168 C 
HETATM   11  C   UNL     1      68.011   4.500   8.485  1.00  0.00     0.026 C 
HETATM   12  C   UNL     1      68.054   5.921   9.029  1.00  0.00     0.005 C 
HETATM   13  C   UNL     1      66.644   6.452   9.271  1.00  0.00     0.042 C 
ENDBRANCH   1   8
TORSDOF 1
ENDMDL
MODEL 3
REMARK VINA RESULT:      -4.4      1.658      5.029
REMARK  1 active torsions:
REMARK  status: ('A' for Active; 'I' for Inactive)
REMARK       I    between atoms: C_1  and  N_2 
REMARK    1  A    between atoms: C_1  and  C_3 
ROOT
HETATM    1  C   UNL     1      65.089   7.846   5.659  1.00  0.00     0.248 C 
HETATM    2  N   UNL     1      65.774   6.902   6.397  1.00  0.00    -0.350 N 
HETATM    3  O   UNL     1      65.684   8.749   5.065  1.00  0.00    -0.270 OA
HETATM    4  C   UNL     1      67.215   6.951   6.543  1.00  0.00     0.126 C 
HETATM    5  C   UNL     1      65.219   5.705   7.011  1.00  0.00     0.126 C 
HETATM    6  C   UNL     1      66.419   4.979   7.612  1.00  0.00     0.021 C 
HETATM    7  C   UNL     1      67.602   5.506   6.808  1.00  0.00     0.021 C 
ENDROOT
BRANCH   1   8
HETATM    8  C   UNL     1      63.540   7.728   5.632  1.00  0.00     0.213 C 
HETATM    9  O   UNL     1      62.878   8.903   6.110  1.00  0.00    -0.376 OA
HETATM   10  C   UNL     1      63.028  10.022   5.234  1.00  0.00     0.168 C 
HETATM   11  C   UNL     1      62.410   9.738   3.873  1.00  0.00     0.026 C 
HETATM   12  C   UNL     1      63.008   8.481   3.257  1.00  0.00     0.005 C 
HETATM   13  C   UNL     1      62.991   7.328   4.256  1.00  0.00     0.042 C 
ENDBRANCH   1   8
TORSDOF 1
ENDMDL
MODEL 4
REMARK VINA RESULT:      -4.4      1.698      5.128
REMARK  1 active torsions:
REMARK  status: ('A' for Active; 'I' for Inactive)
REMARK       I    between atoms: C_1  and  N_2 
REMARK    1  A    between atoms: C_1  and  C_3 
ROOT
HETATM    1  C   UNL     1      64.900   7.179   6.434  1.00  0.00     0.248 C 
HETATM    2  N   UNL     1      65.946   6.433   6.939  1.00  0.00    -0.350 N 
HETATM    3  O   UNL     1      63.781   7.144   6.951  1.00  0.00    -0.270 OA
HETATM    4  C   UNL     1      65.769   5.546   8.072  1.00  0.00     0.126 C 
HETATM    5  C   UNL     1      67.340   6.498   6.528  1.00  0.00     0.126 C 
HETATM    6  C   UNL     1      68.072   5.544   7.468  1.00  0.00     0.021 C 
HETATM    7  C   UNL     1      67.156   5.460   8.685  1.00  0.00     0.021 C 
ENDROOT
BRANCH   1   8
HETATM    8  C   UNL     1      65.195   8.041   5.175  1.00  0.00     0.213 C 
HETATM    9  O   UNL     1      65.359   7.262   3.985  1.00  0.00    -0.376 OA
HETATM   10  C   UNL     1      64.143   6.649   3.551  1.00  0.00     0.168 C 
HETATM   11  C   UNL     1      63.095   7.697   3.206  1.00  0.00     0.026 C 
HETATM   12  C   UNL     1      62.844   8.623   4.387  1.00  0.00     0.005 C 
HETATM   13  C   UNL     1      64.160   9.151   4.950  1.00  0.00     0.042 C 
ENDBRANCH   1   8
TORSDOF 1
ENDMDL
MODEL 5
REMARK VINA RESULT:      -4.4      1.508      2.264
REMARK  1 active torsions:
REMARK  status: ('A' for Active; 'I' for Inactive)
REMARK       I    between atoms: C_1  and  N_2 
REMARK    1  A    between atoms: C_1  and  C_3 
ROOT
HETATM    1  C   UNL     1      64.410   8.765   4.906  1.00  0.00     0.248 C 
HETATM    2  N   UNL     1      63.438   8.744   3.927  1.00  0.00    -0.350 N 
HETATM    3  O   UNL     1      64.421   9.636   5.779  1.00  0.00    -0.270 OA
HETATM    4  C   UNL     1      62.411   9.765   3.854  1.00  0.00     0.126 C 
HETATM    5  C   UNL     1      63.216   7.697   2.940  1.00  0.00     0.126 C 
HETATM    6  C   UNL     1      61.968   8.133   2.179  1.00  0.00     0.021 C 
HETATM    7  C   UNL     1      61.258   9.069   3.151  1.00  0.00     0.021 C 
ENDROOT
BRANCH   1   8
HETATM    8  C   UNL     1      65.498   7.657   4.840  1.00  0.00     0.213 C 
HETATM    9  O   UNL     1      66.784   8.103   5.280  1.00  0.00    -0.376 OA
HETATM   10  C   UNL     1      66.828   8.371   6.684  1.00  0.00     0.168 C 
HETATM   11  C   UNL     1      66.541   7.112   7.490  1.00  0.00     0.026 C 
HETATM   12  C   UNL     1      65.201   6.509   7.094  1.00  0.00     0.005 C 
HETATM   13  C   UNL     1      65.094   6.374   5.578  1.00  0.00     0.042 C 
ENDBRANCH   1   8
TORSDOF 1
ENDMDL
MODEL 6
REMARK VINA RESULT:      -4.4      1.710      2.313
REMARK  1 active torsions:
REMARK  status: ('A' for Active; 'I' for Inactive)
REMARK       I    between atoms: C_1  and  N_2 
REMARK    1  A    between atoms: C_1  and  C_3 
ROOT
HETATM    1  C   UNL     1      65.154   6.596   6.420  1.00  0.00     0.248 C 
HETATM    2  N   UNL     1      64.248   7.470   5.854  1.00  0.00    -0.350 N 
HETATM    3  O   UNL     1      64.799   5.495   6.849  1.00  0.00    -0.270 OA
HETATM    4  C   UNL     1      62.836   7.154   5.772  1.00  0.00     0.126 C 
HETATM    5  C   UNL     1      64.552   8.720   5.175  1.00  0.00     0.126 C 
HETATM    6  C   UNL     1      63.206   9.228   4.664  1.00  0.00     0.021 C 
HETATM    7  C   UNL     1      62.350   7.969   4.586  1.00  0.00     0.021 C 
ENDROOT
BRANCH   1   8
HETATM    8  C   UNL     1      66.629   7.075   6.513  1.00  0.00     0.213 C 
HETATM    9  O   UNL     1      66.949   7.674   7.772  1.00  0.00    -0.376 OA
HETATM   10  C   UNL     1      66.956   6.734   8.849  1.00  0.00     0.168 C 
HETATM   11  C   UNL     1      68.014   5.662   8.632  1.00  0.00     0.026 C 
HETATM   12  C   UNL     1      67.809   4.958   7.298  1.00  0.00     0.005 C 
HETATM   13  C   UNL     1      67.641   5.973   6.171  1.00  0.00     0.042 C 
ENDBRANCH   1   8
TORSDOF 1
ENDMDL
MODEL 7
REMARK VINA RESULT:      -4.1      2.145      2.873
REMARK  1 active torsions:
REMARK  status: ('A' for Active; 'I' for Inactive)
REMARK       I    between atoms: C_1  and  N_2 
REMARK    1  A    between atoms: C_1  and  C_3 
ROOT
HETATM    1  C   UNL     1      63.928   7.280   5.976  1.00  0.00     0.248 C 
HETATM    2  N   UNL     1      62.636   7.073   5.538  1.00  0.00    -0.350 N 
HETATM    3  O   UNL     1      64.271   6.984   7.123  1.00  0.00    -0.270 OA
HETATM    4  C   UNL     1      61.614   6.537   6.416  1.00  0.00     0.126 C 
HETATM    5  C   UNL     1      62.140   7.228   4.179  1.00  0.00     0.126 C 
HETATM    6  C   UNL     1      60.682   6.781   4.239  1.00  0.00     0.021 C 
HETATM    7  C   UNL     1      60.630   5.877   5.465  1.00  0.00     0.021 C 
ENDROOT
BRANCH   1   8
HETATM    8  C   UNL     1      64.917   7.924   4.964  1.00  0.00     0.213 C 
HETATM    9  O   UNL     1      65.823   8.849   5.573  1.00  0.00    -0.376 OA
HETATM   10  C   UNL     1      66.771   8.214   6.434  1.00  0.00     0.168 C 
HETATM   11  C   UNL     1      67.649   7.243   5.658  1.00  0.00     0.026 C 
HETATM   12  C   UNL     1      66.803   6.211   4.928  1.00  0.00     0.005 C 
HETATM   13  C   UNL     1      65.688   6.887   4.135  1.00  0.00     0.042 C 
ENDBRANCH   1   8
TORSDOF 1
ENDMDL
MODEL 8
REMARK VINA RESULT:      -4.1      2.704      5.489
REMARK  1 active torsions:
REMARK  status: ('A' for Active; 'I' for Inactive)
REMARK       I    between atoms: C_1  and  N_2 
REMARK    1  A    between atoms: C_1  and  C_3 
ROOT
HETATM    1  C   UNL     1      62.491   7.872   3.938  1.00  0.00     0.248 C 
HETATM    2  N   UNL     1      62.317   6.970   4.968  1.00  0.00    -0.350 N 
HETATM    3  O   UNL     1      63.613   8.122   3.489  1.00  0.00    -0.270 OA
HETATM    4  C   UNL     1      63.442   6.306   5.596  1.00  0.00     0.126 C 
HETATM    5  C   UNL     1      61.051   6.469   5.483  1.00  0.00     0.126 C 
HETATM    6  C   UNL     1      61.437   5.437   6.538  1.00  0.00     0.021 C 
HETATM    7  C   UNL     1      62.847   5.018   6.138  1.00  0.00     0.021 C 
ENDROOT
BRANCH   1   8
HETATM    8  C   UNL     1      61.215   8.571   3.392  1.00  0.00     0.213 C 
HETATM    9  O   UNL     1      61.018   9.882   3.929  1.00  0.00    -0.376 OA
HETATM   10  C   UNL     1      61.994  10.822   3.473  1.00  0.00     0.168 C 
HETATM   11  C   UNL     1      61.927  10.990   1.962  1.00  0.00     0.026 C 
HETATM   12  C   UNL     1      62.092   9.651   1.259  1.00  0.00     0.005 C 
HETATM   13  C   UNL     1      61.157   8.605   1.860  1.00  0.00     0.042 C 
ENDBRANCH   1   8
TORSDOF 1
ENDMDL
MODEL 9
REMARK VINA RESULT:      -4.1      1.661      4.943
REMARK  1 active torsions:
REMARK  status: ('A' for Active; 'I' for Inactive)
REMARK       I    between atoms: C_1  and  N_2 
REMARK    1  A    between atoms: C_1  and  C_3 
ROOT
HETATM    1  C   UNL     1      64.284   8.312   4.643  1.00  0.00     0.248 C 
HETATM    2  N   UNL     1      65.462   7.662   4.950  1.00  0.00    -0.350 N 
HETATM    3  O   UNL     1      63.856   9.230   5.347  1.00  0.00    -0.270 OA
HETATM    4  C   UNL     1      66.229   7.999   6.133  1.00  0.00     0.126 C 
HETATM    5  C   UNL     1      66.155   6.680   4.130  1.00  0.00     0.126 C 
HETATM    6  C   UNL     1      67.438   6.366   4.893  1.00  0.00     0.021 C 
HETATM    7  C   UNL     1      67.648   7.594   5.772  1.00  0.00     0.021 C 
ENDROOT
BRANCH   1   8
HETATM    8  C   UNL     1      63.515   7.817   3.386  1.00  0.00     0.213 C 
HETATM    9  O   UNL     1      62.776   6.613   3.616  1.00  0.00    -0.376 OA
HETATM   10  C   UNL     1      61.664   6.803   4.493  1.00  0.00     0.168 C 
HETATM   11  C   UNL     1      60.662   7.783   3.901  1.00  0.00     0.026 C 
HETATM   12  C   UNL     1      61.329   9.112   3.576  1.00  0.00     0.005 C 
HETATM   13  C   UNL     1      62.609   8.893   2.773  1.00  0.00     0.042 C 
ENDBRANCH   1   8
TORSDOF 1
ENDMDL
