MODEL 1
REMARK VINA RESULT:      -5.6      0.000      0.000
REMARK  2 active torsions:
REMARK  status: ('A' for Active; 'I' for Inactive)
REMARK    1  A    between atoms: C_1  and  S_2 
REMARK    2  A    between atoms: S_2  and  N_7 
ROOT
HETATM    1  S   UNL     1      63.201   7.252   6.007  1.00  0.00     0.252 S 
HETATM    2  O   UNL     1      62.512   7.868   7.119  1.00  0.00    -0.205 OA
HETATM    3  O   UNL     1      62.975   5.861   5.658  1.00  0.00    -0.205 OA
ENDROOT
BRANCH   1   4
HETATM    4  C   UNL     1      62.753   8.247   4.607  1.00  0.00     0.139 A 
HETATM    5  S   UNL     1      62.306   7.438   3.161  1.00  0.00    -0.062 SA
HETATM    6  C   UNL     1      62.078   8.949   2.385  1.00  0.00     0.048 A 
HETATM    7  N   UNL     1      62.304  10.004   3.133  1.00  0.00    -0.356 N 
HETATM    8  C   UNL     1      61.663   9.031   0.958  1.00  0.00     0.076 C 
HETATM    9  C   UNL     1      62.670   9.616   4.414  1.00  0.00     0.036 A 
ATOM     10  HN  UNL     1      62.222  10.971   2.817  1.00  0.00     0.166 HD
HETATM   11  C   UNL     1      62.937  10.703   5.391  1.00  0.00     0.070 C 
ENDBRANCH   1   4
BRANCH   1  12
HETATM   12  N   UNL     1      64.898   7.458   6.248  1.00  0.00    -0.206 NA
HETATM   13  C   UNL     1      65.672   7.433   4.972  1.00  0.00     0.107 C 
HETATM   14  C   UNL     1      67.138   7.772   5.226  1.00  0.00     0.015 C 
HETATM   15  C   UNL     1      67.743   6.811   6.240  1.00  0.00     0.002 C 
HETATM   16  C   UNL     1      66.930   6.844   7.530  1.00  0.00     0.015 C 
HETATM   17  C   UNL     1      65.459   6.522   7.269  1.00  0.00     0.107 C 
ENDBRANCH   1  12
TORSDOF 2
ENDMDL
MODEL 2
REMARK VINA RESULT:      -5.4      1.437      1.965
REMARK  2 active torsions:
REMARK  status: ('A' for Active; 'I' for Inactive)
REMARK    1  A    between atoms: C_1  and  S_2 
REMARK    2  A    between atoms: S_2  and  N_7 
ROOT
HETATM    1  S   UNL     1      63.977   8.433   5.571  1.00  0.00     0.252 S 
HETATM    2  O   UNL     1      64.825   9.587   5.769  1.00  0.00    -0.205 OA
HETATM    3  O   UNL     1      62.982   8.051   6.557  1.00  0.00    -0.205 OA
ENDROOT
BRANCH   1   4
HETATM    4  C   UNL     1      63.135   8.764   4.044  1.00  0.00     0.139 A 
HETATM    5  S   UNL     1      63.143   7.537   2.843  1.00  0.00    -0.062 SA
HETATM    6  C   UNL     1      62.243   8.554   1.797  1.00  0.00     0.048 A 
HETATM    7  N   UNL     1      61.935   9.732   2.287  1.00  0.00    -0.356 N 
HETATM    8  C   UNL     1      61.860   8.111   0.429  1.00  0.00     0.076 C 
HETATM    9  C   UNL     1      62.421   9.857   3.581  1.00  0.00     0.036 A 
ATOM     10  HN  UNL     1      61.413  10.453   1.788  1.00  0.00     0.166 HD
HETATM   11  C   UNL     1      62.131  11.134   4.283  1.00  0.00     0.070 C 
ENDBRANCH   1   4
BRANCH   1  12
HETATM   12  N   UNL     1      64.992   7.063   5.299  1.00  0.00    -0.206 NA
HETATM   13  C   UNL     1      65.002   6.112   6.450  1.00  0.00     0.107 C 
HETATM   14  C   UNL     1      65.787   4.852   6.099  1.00  0.00     0.015 C 
HETATM   15  C   UNL     1      67.208   5.204   5.680  1.00  0.00     0.002 C 
HETATM   16  C   UNL     1      67.173   6.183   4.512  1.00  0.00     0.015 C 
HETATM   17  C   UNL     1      66.370   7.437   4.861  1.00  0.00     0.107 C 
ENDBRANCH   1  12
TORSDOF 2
ENDMDL
MODEL 3
REMARK VINA RESULT:      -5.2      1.384      2.227
REMARK  2 active torsions:
REMARK  status: ('A' for Active; 'I' for Inactive)
REMARK    1  A    between atoms: C_1  and  S_2 
REMARK    2  A    between atoms: S_2  and  N_7 
ROOT
HETATM    1  S   UNL     1      63.062   7.267   5.549  1.00  0.00     0.252 S 
HETATM    2  O   UNL     1      62.861   8.143   6.682  1.00  0.00    -0.205 OA
HETATM    3  O   UNL     1      62.300   6.040   5.402  1.00  0.00    -0.205 OA
ENDROOT
BRANCH   1   4
HETATM    4  C   UNL     1      62.727   8.291   4.138  1.00  0.00     0.139 A 
HETATM    5  S   UNL     1      62.336   9.939   4.421  1.00  0.00    -0.062 SA
HETATM    6  C   UNL     1      62.149  10.185   2.735  1.00  0.00     0.048 A 
HETATM    7  N   UNL     1      62.366   9.129   1.986  1.00  0.00    -0.356 N 
HETATM    8  C   UNL     1      61.757  11.510   2.186  1.00  0.00     0.076 C 
HETATM    9  C   UNL     1      62.719   8.043   2.775  1.00  0.00     0.036 A 
ATOM     10  HN  UNL     1      62.287   9.109   0.969  1.00  0.00     0.166 HD
HETATM   11  C   UNL     1      63.021   6.772   2.068  1.00  0.00     0.070 C 
ENDBRANCH   1   4
BRANCH   1  12
HETATM   12  N   UNL     1      64.736   6.851   5.483  1.00  0.00    -0.206 NA
HETATM   13  C   UNL     1      65.253   6.322   6.780  1.00  0.00     0.107 C 
HETATM   14  C   UNL     1      66.688   5.828   6.625  1.00  0.00     0.015 C 
HETATM   15  C   UNL     1      67.585   6.942   6.102  1.00  0.00     0.002 C 
HETATM   16  C   UNL     1      67.032   7.474   4.785  1.00  0.00     0.015 C 
HETATM   17  C   UNL     1      65.588   7.951   4.940  1.00  0.00     0.107 C 
ENDBRANCH   1  12
TORSDOF 2
ENDMDL
MODEL 4
REMARK VINA RESULT:      -4.7      1.573      5.521
REMARK  2 active torsions:
REMARK  status: ('A' for Active; 'I' for Inactive)
REMARK    1  A    between atoms: C_1  and  S_2 
REMARK    2  A    between atoms: S_2  and  N_7 
ROOT
HETATM    1  S   UNL     1      62.960   7.164   5.653  1.00  0.00     0.252 S 
HETATM    2  O   UNL     1      62.209   6.023   5.177  1.00  0.00    -0.205 OA
HETATM    3  O   UNL     1      62.646   7.795   6.923  1.00  0.00    -0.205 OA
ENDROOT
BRANCH   1   4
HETATM    4  C   UNL     1      64.636   6.586   5.728  1.00  0.00     0.139 A 
HETATM    5  S   UNL     1      65.419   6.598   7.255  1.00  0.00    -0.062 SA
HETATM    6  C   UNL     1      66.846   5.986   6.530  1.00  0.00     0.048 A 
HETATM    7  N   UNL     1      66.770   5.769   5.237  1.00  0.00    -0.356 N 
HETATM    8  C   UNL     1      68.075   5.737   7.330  1.00  0.00     0.076 C 
HETATM    9  C   UNL     1      65.504   6.088   4.769  1.00  0.00     0.036 A 
ATOM     10  HN  UNL     1      67.534   5.417   4.659  1.00  0.00     0.166 HD
HETATM   11  C   UNL     1      65.252   5.873   3.321  1.00  0.00     0.070 C 
ENDBRANCH   1   4
BRANCH   1  12
HETATM   12  N   UNL     1      62.903   8.388   4.437  1.00  0.00    -0.206 NA
HETATM   13  C   UNL     1      62.310   9.667   4.928  1.00  0.00     0.107 C 
HETATM   14  C   UNL     1      62.424  10.756   3.866  1.00  0.00     0.015 C 
HETATM   15  C   UNL     1      61.755  10.315   2.571  1.00  0.00     0.002 C 
HETATM   16  C   UNL     1      62.368   9.004   2.095  1.00  0.00     0.015 C 
HETATM   17  C   UNL     1      62.268   7.920   3.168  1.00  0.00     0.107 C 
ENDBRANCH   1  12
TORSDOF 2
ENDMDL
MODEL 5
REMARK VINA RESULT:      -4.7      2.215      5.345
REMARK  2 active torsions:
REMARK  status: ('A' for Active; 'I' for Inactive)
REMARK    1  A    between atoms: C_1  and  S_2 
REMARK    2  A    between atoms: S_2  and  N_7 
ROOT
HETATM    1  S   UNL     1      64.158   7.982   5.549  1.00  0.00     0.252 S 
HETATM    2  O   UNL     1      63.486   7.472   6.724  1.00  0.00    -0.205 OA
HETATM    3  O   UNL     1      64.739   9.313   5.532  1.00  0.00    -0.205 OA
ENDROOT
BRANCH   1   4
HETATM    4  C   UNL     1      65.458   6.813   5.244  1.00  0.00     0.139 A 
HETATM    5  S   UNL     1      65.465   6.001   3.732  1.00  0.00    -0.062 SA
HETATM    6  C   UNL     1      66.864   5.131   4.204  1.00  0.00     0.048 A 
HETATM    7  N   UNL     1      67.323   5.414   5.401  1.00  0.00    -0.356 N 
HETATM    8  C   UNL     1      67.489   4.124   3.305  1.00  0.00     0.076 C 
HETATM    9  C   UNL     1      66.540   6.391   5.999  1.00  0.00     0.036 A 
ATOM     10  HN  UNL     1      68.139   4.977   5.831  1.00  0.00     0.166 HD
HETATM   11  C   UNL     1      66.947   6.837   7.356  1.00  0.00     0.070 C 
ENDBRANCH   1   4
BRANCH   1  12
HETATM   12  N   UNL     1      63.063   7.877   4.218  1.00  0.00    -0.206 NA
HETATM   13  C   UNL     1      62.769   9.205   3.603  1.00  0.00     0.107 C 
HETATM   14  C   UNL     1      61.924   9.038   2.344  1.00  0.00     0.015 C 
HETATM   15  C   UNL     1      60.634   8.293   2.658  1.00  0.00     0.002 C 
HETATM   16  C   UNL     1      60.958   6.947   3.295  1.00  0.00     0.015 C 
HETATM   17  C   UNL     1      61.819   7.117   4.546  1.00  0.00     0.107 C 
ENDBRANCH   1  12
TORSDOF 2
ENDMDL
MODEL 6
REMARK VINA RESULT:      -4.3      2.691      3.221
REMARK  2 active torsions:
REMARK  status: ('A' for Active; 'I' for Inactive)
REMARK    1  A    between atoms: C_1  and  S_2 
REMARK    2  A    between atoms: S_2  and  N_7 
ROOT
HETATM    1  S   UNL     1      65.894   7.355   6.548  1.00  0.00     0.252 S 
HETATM    2  O   UNL     1      66.572   8.606   6.288  1.00  0.00    -0.205 OA
HETATM    3  O   UNL     1      65.652   6.899   7.905  1.00  0.00    -0.205 OA
ENDROOT
BRANCH   1   4
HETATM    4  C   UNL     1      64.323   7.532   5.741  1.00  0.00     0.139 A 
HETATM    5  S   UNL     1      64.029   8.983   4.873  1.00  0.00    -0.062 SA
HETATM    6  C   UNL     1      62.459   8.426   4.471  1.00  0.00     0.048 A 
HETATM    7  N   UNL     1      62.151   7.236   4.933  1.00  0.00    -0.356 N 
HETATM    8  C   UNL     1      61.526   9.257   3.664  1.00  0.00     0.076 C 
HETATM    9  C   UNL     1      63.217   6.704   5.643  1.00  0.00     0.036 A 
ATOM     10  HN  UNL     1      61.255   6.769   4.790  1.00  0.00     0.166 HD
HETATM   11  C   UNL     1      63.030   5.344   6.212  1.00  0.00     0.070 C 
ENDBRANCH   1   4
BRANCH   1  12
HETATM   12  N   UNL     1      66.747   6.102   5.723  1.00  0.00    -0.206 NA
HETATM   13  C   UNL     1      66.333   5.963   4.295  1.00  0.00     0.107 C 
HETATM   14  C   UNL     1      67.219   4.952   3.574  1.00  0.00     0.015 C 
HETATM   15  C   UNL     1      67.178   3.603   4.279  1.00  0.00     0.002 C 
HETATM   16  C   UNL     1      67.593   3.771   5.737  1.00  0.00     0.015 C 
HETATM   17  C   UNL     1      66.714   4.798   6.451  1.00  0.00     0.107 C 
ENDBRANCH   1  12
TORSDOF 2
ENDMDL
MODEL 7
REMARK VINA RESULT:      -4.3      3.231      3.733
REMARK  2 active torsions:
REMARK  status: ('A' for Active; 'I' for Inactive)
REMARK    1  A    between atoms: C_1  and  S_2 
REMARK    2  A    between atoms: S_2  and  N_7 
ROOT
HETATM    1  S   UNL     1      66.588   7.717   5.526  1.00  0.00     0.252 S 
HETATM    2  O   UNL     1      67.550   7.869   4.456  1.00  0.00    -0.205 OA
HETATM    3  O   UNL     1      66.005   8.872   6.184  1.00  0.00    -0.205 OA
ENDROOT
BRANCH   1   4
HETATM    4  C   UNL     1      65.269   6.777   4.800  1.00  0.00     0.139 A 
HETATM    5  S   UNL     1      65.584   5.970   3.318  1.00  0.00    -0.062 SA
HETATM    6  C   UNL     1      63.971   5.391   3.289  1.00  0.00     0.048 A 
HETATM    7  N   UNL     1      63.227   5.752   4.309  1.00  0.00    -0.356 N 
HETATM    8  C   UNL     1      63.471   4.548   2.170  1.00  0.00     0.076 C 
HETATM    9  C   UNL     1      63.964   6.528   5.192  1.00  0.00     0.036 A 
ATOM     10  HN  UNL     1      62.246   5.498   4.434  1.00  0.00     0.166 HD
HETATM   11  C   UNL     1      63.264   6.997   6.416  1.00  0.00     0.070 C 
ENDBRANCH   1   4
BRANCH   1  12
HETATM   12  N   UNL     1      67.299   6.726   6.748  1.00  0.00    -0.206 NA
HETATM   13  C   UNL     1      67.301   5.276   6.390  1.00  0.00     0.107 C 
HETATM   14  C   UNL     1      68.074   4.468   7.428  1.00  0.00     0.015 C 
HETATM   15  C   UNL     1      67.487   4.678   8.817  1.00  0.00     0.002 C 
HETATM   16  C   UNL     1      67.484   6.164   9.156  1.00  0.00     0.015 C 
HETATM   17  C   UNL     1      66.724   6.973   8.105  1.00  0.00     0.107 C 
ENDBRANCH   1  12
TORSDOF 2
ENDMDL
MODEL 8
REMARK VINA RESULT:      -4.3      2.902      3.382
REMARK  2 active torsions:
REMARK  status: ('A' for Active; 'I' for Inactive)
REMARK    1  A    between atoms: C_1  and  S_2 
REMARK    2  A    between atoms: S_2  and  N_7 
ROOT
HETATM    1  S   UNL     1      66.112   7.249   4.839  1.00  0.00     0.252 S 
HETATM    2  O   UNL     1      66.996   6.775   3.797  1.00  0.00    -0.205 OA
HETATM    3  O   UNL     1      66.004   8.664   5.148  1.00  0.00    -0.205 OA
ENDROOT
BRANCH   1   4
HETATM    4  C   UNL     1      64.507   6.671   4.349  1.00  0.00     0.139 A 
HETATM    5  S   UNL     1      64.371   5.879   2.832  1.00  0.00    -0.062 SA
HETATM    6  C   UNL     1      62.686   5.688   3.082  1.00  0.00     0.048 A 
HETATM    7  N   UNL     1      62.229   6.165   4.217  1.00  0.00    -0.356 N 
HETATM    8  C   UNL     1      61.822   5.034   2.064  1.00  0.00     0.076 C 
HETATM    9  C   UNL     1      63.265   6.711   4.962  1.00  0.00     0.036 A 
ATOM     10  HN  UNL     1      61.252   6.139   4.510  1.00  0.00     0.166 HD
HETATM   11  C   UNL     1      62.910   7.274   6.290  1.00  0.00     0.070 C 
ENDBRANCH   1   4
BRANCH   1  12
HETATM   12  N   UNL     1      66.519   6.427   6.301  1.00  0.00    -0.206 NA
HETATM   13  C   UNL     1      66.626   7.347   7.473  1.00  0.00     0.107 C 
HETATM   14  C   UNL     1      66.834   6.556   8.760  1.00  0.00     0.015 C 
HETATM   15  C   UNL     1      68.071   5.674   8.654  1.00  0.00     0.002 C 
HETATM   16  C   UNL     1      67.945   4.752   7.447  1.00  0.00     0.015 C 
HETATM   17  C   UNL     1      67.719   5.548   6.161  1.00  0.00     0.107 C 
ENDBRANCH   1  12
TORSDOF 2
ENDMDL
MODEL 9
REMARK VINA RESULT:      -4.3      2.761      5.268
REMARK  2 active torsions:
REMARK  status: ('A' for Active; 'I' for Inactive)
REMARK    1  A    between atoms: C_1  and  S_2 
REMARK    2  A    between atoms: S_2  and  N_7 
ROOT
HETATM    1  S   UNL     1      62.882   7.419   2.494  1.00  0.00     0.252 S 
HETATM    2  O   UNL     1      62.595   8.633   1.762  1.00  0.00    -0.205 OA
HETATM    3  O   UNL     1      63.593   6.316   1.873  1.00  0.00    -0.205 OA
ENDROOT
BRANCH   1   4
HETATM    4  C   UNL     1      63.831   7.963   3.892  1.00  0.00     0.139 A 
HETATM    5  S   UNL     1      65.227   7.058   4.312  1.00  0.00    -0.062 SA
HETATM    6  C   UNL     1      65.514   8.111   5.634  1.00  0.00     0.048 A 
HETATM    7  N   UNL     1      64.646   9.088   5.772  1.00  0.00    -0.356 N 
HETATM    8  C   UNL     1      66.665   7.905   6.552  1.00  0.00     0.076 C 
HETATM    9  C   UNL     1      63.690   9.027   4.768  1.00  0.00     0.036 A 
ATOM     10  HN  UNL     1      64.672   9.790   6.511  1.00  0.00     0.166 HD
HETATM   11  C   UNL     1      62.647  10.085   4.774  1.00  0.00     0.070 C 
ENDBRANCH   1   4
BRANCH   1  12
HETATM   12  N   UNL     1      61.393   6.798   3.107  1.00  0.00    -0.206 NA
HETATM   13  C   UNL     1      60.299   7.814   3.112  1.00  0.00     0.107 C 
HETATM   14  C   UNL     1      58.974   7.176   3.515  1.00  0.00     0.015 C 
HETATM   15  C   UNL     1      59.093   6.507   4.878  1.00  0.00     0.002 C 
HETATM   16  C   UNL     1      60.221   5.483   4.853  1.00  0.00     0.015 C 
HETATM   17  C   UNL     1      61.544   6.122   4.431  1.00  0.00     0.107 C 
ENDBRANCH   1  12
TORSDOF 2
ENDMDL
