MODEL 1
REMARK VINA RESULT:      -4.9      0.000      0.000
REMARK  1 active torsions:
REMARK  status: ('A' for Active; 'I' for Inactive)
REMARK    1  A    between atoms: C_1  and  C_2 
REMARK       I    between atoms: C_1  and  N_4 
ROOT
HETATM    1  C   UNL     1      63.182   7.879   6.034  1.00  0.00     0.270 C 
HETATM    2  N   UNL     1      64.407   7.242   5.820  1.00  0.00    -0.343 N 
HETATM    3  O   UNL     1      62.483   7.571   7.002  1.00  0.00    -0.266 OA
HETATM    4  O   UNL     1      67.184   6.997   6.444  1.00  0.00    -0.388 OA
HETATM    5  C   UNL     1      65.438   7.612   4.842  1.00  0.00     0.152 C 
HETATM    6  C   UNL     1      64.876   6.247   6.789  1.00  0.00     0.152 C 
HETATM    7  C   UNL     1      66.185   6.717   7.439  1.00  0.00     0.187 C 
HETATM    8  C   UNL     1      66.732   8.024   5.550  1.00  0.00     0.187 C 
ENDROOT
BRANCH   1   9
HETATM    9  C   UNL     1      62.769   8.938   5.122  1.00  0.00     0.102 A 
HETATM   10  N   UNL     1      62.183   8.731   3.885  1.00  0.00    -0.357 N 
HETATM   11  C   UNL     1      61.849   9.936   3.315  1.00  0.00     0.091 A 
HETATM   12  C   UNL     1      61.905   7.464   3.240  1.00  0.00     0.156 C 
HETATM   13  C   UNL     1      62.292  10.938   4.140  1.00  0.00     0.020 A 
HETATM   14  C   UNL     1      62.929  10.315   5.235  1.00  0.00     0.037 A 
ENDBRANCH   1   9
TORSDOF 1
ENDMDL
MODEL 2
REMARK VINA RESULT:      -4.9      0.632      1.615
REMARK  1 active torsions:
REMARK  status: ('A' for Active; 'I' for Inactive)
REMARK    1  A    between atoms: C_1  and  C_2 
REMARK       I    between atoms: C_1  and  N_4 
ROOT
HETATM    1  C   UNL     1      63.162   7.772   5.873  1.00  0.00     0.270 C 
HETATM    2  N   UNL     1      64.403   7.144   5.737  1.00  0.00    -0.343 N 
HETATM    3  O   UNL     1      62.565   7.739   6.951  1.00  0.00    -0.266 OA
HETATM    4  O   UNL     1      67.231   7.193   6.136  1.00  0.00    -0.388 OA
HETATM    5  C   UNL     1      65.326   7.245   4.600  1.00  0.00     0.152 C 
HETATM    6  C   UNL     1      65.010   6.497   6.904  1.00  0.00     0.152 C 
HETATM    7  C   UNL     1      66.336   7.184   7.261  1.00  0.00     0.187 C 
HETATM    8  C   UNL     1      66.645   7.893   5.030  1.00  0.00     0.187 C 
ENDROOT
BRANCH   1   9
HETATM    9  C   UNL     1      62.611   8.498   4.736  1.00  0.00     0.102 A 
HETATM   10  N   UNL     1      62.589   9.877   4.615  1.00  0.00    -0.357 N 
HETATM   11  C   UNL     1      62.072  10.234   3.393  1.00  0.00     0.091 A 
HETATM   12  C   UNL     1      63.054  10.855   5.576  1.00  0.00     0.156 C 
HETATM   13  C   UNL     1      61.674   9.092   2.745  1.00  0.00     0.020 A 
HETATM   14  C   UNL     1      61.947   8.013   3.614  1.00  0.00     0.037 A 
ENDBRANCH   1   9
TORSDOF 1
ENDMDL
MODEL 3
REMARK VINA RESULT:      -4.7      1.611      2.786
REMARK  1 active torsions:
REMARK  status: ('A' for Active; 'I' for Inactive)
REMARK    1  A    between atoms: C_1  and  C_2 
REMARK       I    between atoms: C_1  and  N_4 
ROOT
HETATM    1  C   UNL     1      64.432   8.395   5.167  1.00  0.00     0.270 C 
HETATM    2  N   UNL     1      64.033   7.412   6.076  1.00  0.00    -0.343 N 
HETATM    3  O   UNL     1      65.616   8.728   5.093  1.00  0.00    -0.266 OA
HETATM    4  O   UNL     1      63.790   4.645   6.742  1.00  0.00    -0.388 OA
HETATM    5  C   UNL     1      62.717   6.767   6.162  1.00  0.00     0.152 C 
HETATM    6  C   UNL     1      65.046   6.743   6.897  1.00  0.00     0.152 C 
HETATM    7  C   UNL     1      65.086   5.243   6.574  1.00  0.00     0.187 C 
HETATM    8  C   UNL     1      62.829   5.267   5.877  1.00  0.00     0.187 C 
ENDROOT
BRANCH   1   9
HETATM    9  C   UNL     1      63.434   8.984   4.283  1.00  0.00     0.102 A 
HETATM   10  N   UNL     1      62.769  10.175   4.524  1.00  0.00    -0.357 N 
HETATM   11  C   UNL     1      61.954  10.482   3.462  1.00  0.00     0.091 A 
HETATM   12  C   UNL     1      62.889  11.034   5.683  1.00  0.00     0.156 C 
HETATM   13  C   UNL     1      62.018   9.450   2.559  1.00  0.00     0.020 A 
HETATM   14  C   UNL     1      62.889   8.483   3.105  1.00  0.00     0.037 A 
ENDBRANCH   1   9
TORSDOF 1
ENDMDL
MODEL 4
REMARK VINA RESULT:      -4.5      2.460      3.604
REMARK  1 active torsions:
REMARK  status: ('A' for Active; 'I' for Inactive)
REMARK    1  A    between atoms: C_1  and  C_2 
REMARK       I    between atoms: C_1  and  N_4 
ROOT
HETATM    1  C   UNL     1      65.964   7.677   6.569  1.00  0.00     0.270 C 
HETATM    2  N   UNL     1      66.002   6.692   7.560  1.00  0.00    -0.343 N 
HETATM    3  O   UNL     1      66.600   8.724   6.710  1.00  0.00    -0.266 OA
HETATM    4  O   UNL     1      67.362   4.499   8.784  1.00  0.00    -0.388 OA
HETATM    5  C   UNL     1      65.469   5.327   7.472  1.00  0.00     0.152 C 
HETATM    6  C   UNL     1      66.849   6.895   8.739  1.00  0.00     0.152 C 
HETATM    7  C   UNL     1      67.939   5.815   8.800  1.00  0.00     0.187 C 
HETATM    8  C   UNL     1      66.596   4.298   7.588  1.00  0.00     0.187 C 
ENDROOT
BRANCH   1   9
HETATM    9  C   UNL     1      65.199   7.426   5.354  1.00  0.00     0.102 A 
HETATM   10  N   UNL     1      65.652   6.688   4.274  1.00  0.00    -0.357 N 
HETATM   11  C   UNL     1      64.660   6.581   3.329  1.00  0.00     0.091 A 
HETATM   12  C   UNL     1      66.950   6.069   4.109  1.00  0.00     0.156 C 
HETATM   13  C   UNL     1      63.583   7.319   3.751  1.00  0.00     0.020 A 
HETATM   14  C   UNL     1      63.946   7.904   4.983  1.00  0.00     0.037 A 
ENDBRANCH   1   9
TORSDOF 1
ENDMDL
MODEL 5
REMARK VINA RESULT:      -4.4      1.893      4.897
REMARK  1 active torsions:
REMARK  status: ('A' for Active; 'I' for Inactive)
REMARK    1  A    between atoms: C_1  and  C_2 
REMARK       I    between atoms: C_1  and  N_4 
ROOT
HETATM    1  C   UNL     1      64.738   8.651   5.010  1.00  0.00     0.270 C 
HETATM    2  N   UNL     1      63.879   8.350   3.950  1.00  0.00    -0.343 N 
HETATM    3  O   UNL     1      64.553   9.661   5.692  1.00  0.00    -0.266 OA
HETATM    4  O   UNL     1      61.399   7.265   3.037  1.00  0.00    -0.388 OA
HETATM    5  C   UNL     1      63.838   7.108   3.168  1.00  0.00     0.152 C 
HETATM    6  C   UNL     1      62.726   9.218   3.695  1.00  0.00     0.152 C 
HETATM    7  C   UNL     1      61.419   8.432   3.877  1.00  0.00     0.187 C 
HETATM    8  C   UNL     1      62.496   6.396   3.353  1.00  0.00     0.187 C 
ENDROOT
BRANCH   1   9
HETATM    9  C   UNL     1      65.824   7.730   5.320  1.00  0.00     0.102 A 
HETATM   10  N   UNL     1      65.702   6.603   6.115  1.00  0.00    -0.357 N 
HETATM   11  C   UNL     1      66.891   5.915   6.142  1.00  0.00     0.091 A 
HETATM   12  C   UNL     1      64.523   6.140   6.816  1.00  0.00     0.156 C 
HETATM   13  C   UNL     1      67.820   6.635   5.434  1.00  0.00     0.020 A 
HETATM   14  C   UNL     1      67.171   7.804   4.979  1.00  0.00     0.037 A 
ENDBRANCH   1   9
TORSDOF 1
ENDMDL
MODEL 6
REMARK VINA RESULT:      -4.4      1.994      4.870
REMARK  1 active torsions:
REMARK  status: ('A' for Active; 'I' for Inactive)
REMARK    1  A    between atoms: C_1  and  C_2 
REMARK       I    between atoms: C_1  and  N_4 
ROOT
HETATM    1  C   UNL     1      63.858   7.666   3.915  1.00  0.00     0.270 C 
HETATM    2  N   UNL     1      62.844   8.565   4.252  1.00  0.00    -0.343 N 
HETATM    3  O   UNL     1      63.887   7.154   2.794  1.00  0.00    -0.266 OA
HETATM    4  O   UNL     1      61.781  11.215   4.140  1.00  0.00    -0.388 OA
HETATM    5  C   UNL     1      62.766   9.402   5.457  1.00  0.00     0.152 C 
HETATM    6  C   UNL     1      61.850   8.936   3.241  1.00  0.00     0.152 C 
HETATM    7  C   UNL     1      61.934  10.439   2.939  1.00  0.00     0.187 C 
HETATM    8  C   UNL     1      62.807  10.887   5.088  1.00  0.00     0.187 C 
ENDROOT
BRANCH   1   9
HETATM    9  C   UNL     1      64.900   7.379   4.893  1.00  0.00     0.102 A 
HETATM   10  N   UNL     1      64.784   6.466   5.927  1.00  0.00    -0.357 N 
HETATM   11  C   UNL     1      65.969   6.383   6.617  1.00  0.00     0.091 A 
HETATM   12  C   UNL     1      63.629   5.661   6.268  1.00  0.00     0.156 C 
HETATM   13  C   UNL     1      66.838   7.304   6.090  1.00  0.00     0.020 A 
HETATM   14  C   UNL     1      66.146   7.976   5.058  1.00  0.00     0.037 A 
ENDBRANCH   1   9
TORSDOF 1
ENDMDL
MODEL 7
REMARK VINA RESULT:      -4.4      1.865      5.415
REMARK  1 active torsions:
REMARK  status: ('A' for Active; 'I' for Inactive)
REMARK    1  A    between atoms: C_1  and  C_2 
REMARK       I    between atoms: C_1  and  N_4 
ROOT
HETATM    1  C   UNL     1      65.965   7.781   6.423  1.00  0.00     0.270 C 
HETATM    2  N   UNL     1      64.868   7.567   5.583  1.00  0.00    -0.343 N 
HETATM    3  O   UNL     1      66.468   8.903   6.512  1.00  0.00    -0.266 OA
HETATM    4  O   UNL     1      62.052   7.744   5.138  1.00  0.00    -0.388 OA
HETATM    5  C   UNL     1      64.037   6.359   5.503  1.00  0.00     0.152 C 
HETATM    6  C   UNL     1      64.290   8.702   4.857  1.00  0.00     0.152 C 
HETATM    7  C   UNL     1      62.840   8.935   5.304  1.00  0.00     0.187 C 
HETATM    8  C   UNL     1      62.595   6.666   5.914  1.00  0.00     0.187 C 
ENDROOT
BRANCH   1   9
HETATM    9  C   UNL     1      66.471   6.670   7.218  1.00  0.00     0.102 A 
HETATM   10  N   UNL     1      67.213   5.614   6.717  1.00  0.00    -0.357 N 
HETATM   11  C   UNL     1      67.595   4.781   7.741  1.00  0.00     0.091 A 
HETATM   12  C   UNL     1      67.593   5.376   5.341  1.00  0.00     0.156 C 
HETATM   13  C   UNL     1      67.033   5.243   8.904  1.00  0.00     0.020 A 
HETATM   14  C   UNL     1      66.273   6.384   8.565  1.00  0.00     0.037 A 
ENDBRANCH   1   9
TORSDOF 1
ENDMDL
MODEL 8
REMARK VINA RESULT:      -4.4      1.810      2.345
REMARK  1 active torsions:
REMARK  status: ('A' for Active; 'I' for Inactive)
REMARK    1  A    between atoms: C_1  and  C_2 
REMARK       I    between atoms: C_1  and  N_4 
ROOT
HETATM    1  C   UNL     1      64.365   8.664   5.263  1.00  0.00     0.270 C 
HETATM    2  N   UNL     1      65.330   7.683   5.510  1.00  0.00    -0.343 N 
HETATM    3  O   UNL     1      64.524   9.811   5.684  1.00  0.00    -0.266 OA
HETATM    4  O   UNL     1      67.835   6.486   4.836  1.00  0.00    -0.388 OA
HETATM    5  C   UNL     1      65.394   6.337   4.928  1.00  0.00     0.152 C 
HETATM    6  C   UNL     1      66.557   8.050   6.224  1.00  0.00     0.152 C 
HETATM    7  C   UNL     1      67.780   7.838   5.321  1.00  0.00     0.187 C 
HETATM    8  C   UNL     1      66.657   6.173   4.079  1.00  0.00     0.187 C 
ENDROOT
BRANCH   1   9
HETATM    9  C   UNL     1      63.196   8.316   4.466  1.00  0.00     0.102 A 
HETATM   10  N   UNL     1      62.125   7.566   4.920  1.00  0.00    -0.357 N 
HETATM   11  C   UNL     1      61.159   7.486   3.945  1.00  0.00     0.091 A 
HETATM   12  C   UNL     1      61.965   6.953   6.222  1.00  0.00     0.156 C 
HETATM   13  C   UNL     1      61.632   8.113   2.820  1.00  0.00     0.020 A 
HETATM   14  C   UNL     1      62.933   8.571   3.123  1.00  0.00     0.037 A 
ENDBRANCH   1   9
TORSDOF 1
ENDMDL
MODEL 9
REMARK VINA RESULT:      -4.2      2.661      5.400
REMARK  1 active torsions:
REMARK  status: ('A' for Active; 'I' for Inactive)
REMARK    1  A    between atoms: C_1  and  C_2 
REMARK       I    between atoms: C_1  and  N_4 
ROOT
HETATM    1  C   UNL     1      65.401   6.865   6.873  1.00  0.00     0.270 C 
HETATM    2  N   UNL     1      65.722   7.001   5.519  1.00  0.00    -0.343 N 
HETATM    3  O   UNL     1      64.311   7.257   7.294  1.00  0.00    -0.266 OA
HETATM    4  O   UNL     1      65.495   6.041   2.839  1.00  0.00    -0.388 OA
HETATM    5  C   UNL     1      66.878   6.425   4.821  1.00  0.00     0.152 C 
HETATM    6  C   UNL     1      64.727   7.561   4.601  1.00  0.00     0.152 C 
HETATM    7  C   UNL     1      64.336   6.520   3.542  1.00  0.00     0.187 C 
HETATM    8  C   UNL     1      66.423   5.433   3.748  1.00  0.00     0.187 C 
ENDROOT
BRANCH   1   9
HETATM    9  C   UNL     1      66.356   6.216   7.761  1.00  0.00     0.102 A 
HETATM   10  N   UNL     1      66.502   4.846   7.900  1.00  0.00    -0.357 N 
HETATM   11  C   UNL     1      67.538   4.568   8.759  1.00  0.00     0.091 A 
HETATM   12  C   UNL     1      65.735   3.806   7.247  1.00  0.00     0.156 C 
HETATM   13  C   UNL     1      68.019   5.755   9.250  1.00  0.00     0.020 A 
HETATM   14  C   UNL     1      67.235   6.781   8.681  1.00  0.00     0.037 A 
ENDBRANCH   1   9
TORSDOF 1
ENDMDL
