MODEL 1
REMARK VINA RESULT:      -4.1      0.000      0.000
REMARK  2 active torsions:
REMARK  status: ('A' for Active; 'I' for Inactive)
REMARK    1  A    between atoms: C_3  and  N_5 
REMARK    2  A    between atoms: C_4  and  O_6 
ROOT
HETATM    1  N   UNL     1      63.926   9.559   5.376  1.00  0.00    -0.324 N 
ATOM      2  HN  UNL     1      64.637   9.307   6.062  1.00  0.00     0.169 HD
HETATM    3  C   UNL     1      63.259  10.721   5.454  1.00  0.00     0.100 A 
HETATM    4  C   UNL     1      63.613   8.739   4.349  1.00  0.00     0.143 A 
HETATM    5  C   UNL     1      61.989  10.244   3.483  1.00  0.00     0.008 A 
HETATM    6  C   UNL     1      62.294  11.105   4.533  1.00  0.00     0.048 A 
HETATM    7  C   UNL     1      62.661   9.032   3.386  1.00  0.00     0.056 A 
ENDROOT
BRANCH   3   8
HETATM    8  N   UNL     1      63.608  11.561   6.509  1.00  0.00    -0.385 N 
HETATM    9  H   UNL     1      63.130  12.411   6.640  1.00  0.00     0.157 HD
HETATM   10  H   UNL     1      64.335  11.305   7.123  1.00  0.00     0.157 HD
ENDBRANCH   3   8
BRANCH   4  11
HETATM   11  O   UNL     1      64.255   7.522   4.225  1.00  0.00    -0.341 OA
HETATM   12  C   UNL     1      65.537   7.512   4.849  1.00  0.00     0.211 C 
ENDBRANCH   4  11
TORSDOF 2
ENDMDL
MODEL 2
REMARK VINA RESULT:      -3.9      2.455      3.638
REMARK  2 active torsions:
REMARK  status: ('A' for Active; 'I' for Inactive)
REMARK    1  A    between atoms: C_3  and  N_5 
REMARK    2  A    between atoms: C_4  and  O_6 
ROOT
HETATM    1  N   UNL     1      62.661   9.180   3.923  1.00  0.00    -0.324 N 
ATOM      2  HN  UNL     1      62.916   8.995   4.893  1.00  0.00     0.169 HD
HETATM    3  C   UNL     1      62.798   8.243   2.972  1.00  0.00     0.100 A 
HETATM    4  C   UNL     1      62.172  10.379   3.538  1.00  0.00     0.143 A 
HETATM    5  C   UNL     1      61.949   9.696   1.272  1.00  0.00     0.008 A 
HETATM    6  C   UNL     1      62.451   8.453   1.645  1.00  0.00     0.048 A 
HETATM    7  C   UNL     1      61.805  10.684   2.238  1.00  0.00     0.056 A 
ENDROOT
BRANCH   3   8
HETATM    8  N   UNL     1      63.287   7.008   3.392  1.00  0.00    -0.385 N 
HETATM    9  H   UNL     1      62.992   6.183   2.942  1.00  0.00     0.157 HD
HETATM   10  H   UNL     1      63.927   6.959   4.140  1.00  0.00     0.157 HD
ENDBRANCH   3   8
BRANCH   4  11
HETATM   11  O   UNL     1      62.024  11.389   4.470  1.00  0.00    -0.341 OA
HETATM   12  C   UNL     1      62.849  11.201   5.617  1.00  0.00     0.211 C 
ENDBRANCH   4  11
TORSDOF 2
ENDMDL
MODEL 3
REMARK VINA RESULT:      -3.8      2.241      2.833
REMARK  2 active torsions:
REMARK  status: ('A' for Active; 'I' for Inactive)
REMARK    1  A    between atoms: C_3  and  N_5 
REMARK    2  A    between atoms: C_4  and  O_6 
ROOT
HETATM    1  N   UNL     1      62.235  10.358   3.954  1.00  0.00    -0.324 N 
ATOM      2  HN  UNL     1      62.113  11.146   4.591  1.00  0.00     0.169 HD
HETATM    3  C   UNL     1      61.960  10.467   2.646  1.00  0.00     0.100 A 
HETATM    4  C   UNL     1      62.682   9.160   4.391  1.00  0.00     0.143 A 
HETATM    5  C   UNL     1      62.587   8.197   2.220  1.00  0.00     0.008 A 
HETATM    6  C   UNL     1      62.126   9.423   1.747  1.00  0.00     0.048 A 
HETATM    7  C   UNL     1      62.872   8.059   3.572  1.00  0.00     0.056 A 
ENDROOT
BRANCH   3   8
HETATM    8  N   UNL     1      61.518  11.714   2.211  1.00  0.00    -0.385 N 
HETATM    9  H   UNL     1      61.985  12.531   2.503  1.00  0.00     0.157 HD
HETATM   10  H   UNL     1      60.738  11.780   1.614  1.00  0.00     0.157 HD
ENDBRANCH   3   8
BRANCH   4  11
HETATM   11  O   UNL     1      62.967   8.983   5.732  1.00  0.00    -0.341 OA
HETATM   12  C   UNL     1      62.782   7.636   6.158  1.00  0.00     0.211 C 
ENDBRANCH   4  11
TORSDOF 2
ENDMDL
MODEL 4
REMARK VINA RESULT:      -3.8      2.115      3.397
REMARK  2 active torsions:
REMARK  status: ('A' for Active; 'I' for Inactive)
REMARK    1  A    between atoms: C_3  and  N_5 
REMARK    2  A    between atoms: C_4  and  O_6 
ROOT
HETATM    1  N   UNL     1      63.097   9.762   4.796  1.00  0.00    -0.324 N 
ATOM      2  HN  UNL     1      63.191  10.426   5.566  1.00  0.00     0.169 HD
HETATM    3  C   UNL     1      63.699   8.563   4.829  1.00  0.00     0.100 A 
HETATM    4  C   UNL     1      62.363  10.053   3.700  1.00  0.00     0.143 A 
HETATM    5  C   UNL     1      62.824   7.951   2.688  1.00  0.00     0.008 A 
HETATM    6  C   UNL     1      63.585   7.631   3.808  1.00  0.00     0.048 A 
HETATM    7  C   UNL     1      62.197   9.190   2.629  1.00  0.00     0.056 A 
ENDROOT
BRANCH   3   8
HETATM    8  N   UNL     1      64.436   8.276   5.975  1.00  0.00    -0.385 N 
HETATM    9  H   UNL     1      64.074   7.659   6.651  1.00  0.00     0.157 HD
HETATM   10  H   UNL     1      65.319   8.691   6.110  1.00  0.00     0.157 HD
ENDBRANCH   3   8
BRANCH   4  11
HETATM   11  O   UNL     1      61.733  11.278   3.603  1.00  0.00    -0.341 OA
HETATM   12  C   UNL     1      61.700  11.773   2.266  1.00  0.00     0.211 C 
ENDBRANCH   4  11
TORSDOF 2
ENDMDL
MODEL 5
REMARK VINA RESULT:      -3.8      2.339      3.159
REMARK  2 active torsions:
REMARK  status: ('A' for Active; 'I' for Inactive)
REMARK    1  A    between atoms: C_3  and  N_5 
REMARK    2  A    between atoms: C_4  and  O_6 
ROOT
HETATM    1  N   UNL     1      62.588   8.922   2.897  1.00  0.00    -0.324 N 
ATOM      2  HN  UNL     1      62.856   7.940   2.824  1.00  0.00     0.169 HD
HETATM    3  C   UNL     1      62.198   9.623   1.822  1.00  0.00     0.100 A 
HETATM    4  C   UNL     1      62.609   9.572   4.081  1.00  0.00     0.143 A 
HETATM    5  C   UNL     1      61.845  11.605   3.115  1.00  0.00     0.008 A 
HETATM    6  C   UNL     1      61.814  10.955   1.884  1.00  0.00     0.048 A 
HETATM    7  C   UNL     1      62.252  10.901   4.241  1.00  0.00     0.056 A 
ENDROOT
BRANCH   3   8
HETATM    8  N   UNL     1      62.165   8.930   0.614  1.00  0.00    -0.385 N 
HETATM    9  H   UNL     1      61.329   8.884   0.096  1.00  0.00     0.157 HD
HETATM   10  H   UNL     1      62.977   8.485   0.279  1.00  0.00     0.157 HD
ENDBRANCH   3   8
BRANCH   4  11
HETATM   11  O   UNL     1      63.018   8.906   5.221  1.00  0.00    -0.341 OA
HETATM   12  C   UNL     1      64.368   8.458   5.139  1.00  0.00     0.211 C 
ENDBRANCH   4  11
TORSDOF 2
ENDMDL
MODEL 6
REMARK VINA RESULT:      -3.8      1.960      2.917
REMARK  2 active torsions:
REMARK  status: ('A' for Active; 'I' for Inactive)
REMARK    1  A    between atoms: C_3  and  N_5 
REMARK    2  A    between atoms: C_4  and  O_6 
ROOT
HETATM    1  N   UNL     1      62.308  10.552   3.986  1.00  0.00    -0.324 N 
ATOM      2  HN  UNL     1      61.776  11.419   3.913  1.00  0.00     0.169 HD
HETATM    3  C   UNL     1      63.100  10.302   5.040  1.00  0.00     0.100 A 
HETATM    4  C   UNL     1      62.246   9.603   3.025  1.00  0.00     0.143 A 
HETATM    5  C   UNL     1      63.749   8.167   4.178  1.00  0.00     0.008 A 
HETATM    6  C   UNL     1      63.828   9.130   5.180  1.00  0.00     0.048 A 
HETATM    7  C   UNL     1      62.941   8.406   3.074  1.00  0.00     0.056 A 
ENDROOT
BRANCH   3   8
HETATM    8  N   UNL     1      63.136  11.283   6.028  1.00  0.00    -0.385 N 
HETATM    9  H   UNL     1      62.826  11.076   6.939  1.00  0.00     0.157 HD
HETATM   10  H   UNL     1      63.470  12.185   5.815  1.00  0.00     0.157 HD
ENDBRANCH   3   8
BRANCH   4  11
HETATM   11  O   UNL     1      61.459   9.811   1.909  1.00  0.00    -0.341 OA
HETATM   12  C   UNL     1      61.748   8.893   0.857  1.00  0.00     0.211 C 
ENDBRANCH   4  11
TORSDOF 2
ENDMDL
MODEL 7
REMARK VINA RESULT:      -3.7      2.207      3.075
REMARK  2 active torsions:
REMARK  status: ('A' for Active; 'I' for Inactive)
REMARK    1  A    between atoms: C_3  and  N_5 
REMARK    2  A    between atoms: C_4  and  O_6 
ROOT
HETATM    1  N   UNL     1      62.634   8.840   3.344  1.00  0.00    -0.324 N 
ATOM      2  HN  UNL     1      62.922   7.864   3.428  1.00  0.00     0.169 HD
HETATM    3  C   UNL     1      62.631   9.662   4.404  1.00  0.00     0.100 A 
HETATM    4  C   UNL     1      62.238   9.359   2.161  1.00  0.00     0.143 A 
HETATM    5  C   UNL     1      61.854  11.511   3.099  1.00  0.00     0.008 A 
HETATM    6  C   UNL     1      62.258  10.997   4.327  1.00  0.00     0.048 A 
HETATM    7  C   UNL     1      61.842  10.676   1.989  1.00  0.00     0.056 A 
ENDROOT
BRANCH   3   8
HETATM    8  N   UNL     1      63.059   9.113   5.610  1.00  0.00    -0.385 N 
HETATM    9  H   UNL     1      62.470   9.136   6.399  1.00  0.00     0.157 HD
HETATM   10  H   UNL     1      63.953   8.702   5.675  1.00  0.00     0.157 HD
ENDBRANCH   3   8
BRANCH   4  11
HETATM   11  O   UNL     1      62.205   8.556   1.038  1.00  0.00    -0.341 OA
HETATM   12  C   UNL     1      60.881   8.162   0.686  1.00  0.00     0.211 C 
ENDBRANCH   4  11
TORSDOF 2
ENDMDL
MODEL 8
REMARK VINA RESULT:      -3.7      3.100      5.292
REMARK  2 active torsions:
REMARK  status: ('A' for Active; 'I' for Inactive)
REMARK    1  A    between atoms: C_3  and  N_5 
REMARK    2  A    between atoms: C_4  and  O_6 
ROOT
HETATM    1  N   UNL     1      66.190   7.583   7.376  1.00  0.00    -0.324 N 
ATOM      2  HN  UNL     1      65.633   8.003   8.120  1.00  0.00     0.169 HD
HETATM    3  C   UNL     1      66.957   6.505   7.601  1.00  0.00     0.100 A 
HETATM    4  C   UNL     1      66.188   8.087   6.123  1.00  0.00     0.143 A 
HETATM    5  C   UNL     1      67.702   6.434   5.328  1.00  0.00     0.008 A 
HETATM    6  C   UNL     1      67.719   5.898   6.612  1.00  0.00     0.048 A 
HETATM    7  C   UNL     1      66.921   7.554   5.074  1.00  0.00     0.056 A 
ENDROOT
BRANCH   3   8
HETATM    8  N   UNL     1      66.931   5.990   8.894  1.00  0.00    -0.385 N 
HETATM    9  H   UNL     1      66.622   6.550   9.641  1.00  0.00     0.157 HD
HETATM   10  H   UNL     1      67.224   5.064   9.062  1.00  0.00     0.157 HD
ENDBRANCH   3   8
BRANCH   4  11
HETATM   11  O   UNL     1      65.431   9.205   5.836  1.00  0.00    -0.341 OA
HETATM   12  C   UNL     1      64.284   8.902   5.046  1.00  0.00     0.211 C 
ENDBRANCH   4  11
TORSDOF 2
ENDMDL
MODEL 9
REMARK VINA RESULT:      -3.6      1.722      2.645
REMARK  2 active torsions:
REMARK  status: ('A' for Active; 'I' for Inactive)
REMARK    1  A    between atoms: C_3  and  N_5 
REMARK    2  A    between atoms: C_4  and  O_6 
ROOT
HETATM    1  N   UNL     1      63.660   9.596   5.004  1.00  0.00    -0.324 N 
ATOM      2  HN  UNL     1      63.551  10.451   5.550  1.00  0.00     0.169 HD
HETATM    3  C   UNL     1      62.770   9.248   4.063  1.00  0.00     0.100 A 
HETATM    4  C   UNL     1      64.707   8.764   5.198  1.00  0.00     0.143 A 
HETATM    5  C   UNL     1      63.976   7.257   3.510  1.00  0.00     0.008 A 
HETATM    6  C   UNL     1      62.890   8.100   3.293  1.00  0.00     0.048 A 
HETATM    7  C   UNL     1      64.907   7.593   4.485  1.00  0.00     0.056 A 
ENDROOT
BRANCH   3   8
HETATM    8  N   UNL     1      61.708  10.128   3.865  1.00  0.00    -0.385 N 
HETATM    9  H   UNL     1      60.895   9.822   3.403  1.00  0.00     0.157 HD
HETATM   10  H   UNL     1      61.772  11.057   4.186  1.00  0.00     0.157 HD
ENDBRANCH   3   8
BRANCH   4  11
HETATM   11  O   UNL     1      65.647   9.061   6.166  1.00  0.00    -0.341 OA
HETATM   12  C   UNL     1      66.573   7.997   6.375  1.00  0.00     0.211 C 
ENDBRANCH   4  11
TORSDOF 2
ENDMDL
