MODEL 1
REMARK VINA RESULT:      -3.9      0.000      0.000
REMARK  3 active torsions:
REMARK  status: ('A' for Active; 'I' for Inactive)
REMARK    1  A    between atoms: C_1  and  C_2 
REMARK    2  A    between atoms: C_1  and  N_5 
REMARK    3  A    between atoms: C_2  and  O_8 
ROOT
HETATM    1  C   UNL     1      66.647   7.233   7.030  1.00  0.00     0.214 C 
HETATM    2  O   UNL     1      67.735   4.595   7.691  1.00  0.00    -0.391 OA
HETATM    3  C   UNL     1      66.733   6.667   8.466  1.00  0.00     0.075 C 
HETATM    4  C   UNL     1      67.748   6.526   6.201  1.00  0.00     0.075 C 
HETATM    5  C   UNL     1      66.655   5.133   8.435  1.00  0.00     0.170 C 
HETATM    6  C   UNL     1      67.640   4.994   6.335  1.00  0.00     0.170 C 
ENDROOT
BRANCH   1   7
HETATM    7  C   UNL     1      65.242   7.020   6.470  1.00  0.00     0.295 C 
HETATM    8  O   UNL     1      64.257   7.074   7.195  1.00  0.00    -0.262 OA
BRANCH   7   9
HETATM    9  O   UNL     1      65.107   6.737   5.148  1.00  0.00    -0.325 OA
HETATM   10  C   UNL     1      64.435   7.538   4.251  1.00  0.00     0.213 C 
ENDBRANCH   7   9
ENDBRANCH   1   7
BRANCH   1  11
HETATM   11  N   UNL     1      66.924   8.673   7.053  1.00  0.00    -0.061 N 
HETATM   12  H   UNL     1      66.293   9.151   6.410  1.00  0.00     0.275 HD
HETATM   13  H   UNL     1      67.890   8.837   6.767  1.00  0.00     0.275 HD
HETATM   14  H   UNL     1      66.784   9.031   7.997  1.00  0.00     0.275 HD
ENDBRANCH   1  11
TORSDOF 3
ENDMDL
MODEL 2
REMARK VINA RESULT:      -3.8      1.299      3.066
REMARK  3 active torsions:
REMARK  status: ('A' for Active; 'I' for Inactive)
REMARK    1  A    between atoms: C_1  and  C_2 
REMARK    2  A    between atoms: C_1  and  N_5 
REMARK    3  A    between atoms: C_2  and  O_8 
ROOT
HETATM    1  C   UNL     1      66.478   7.560   6.299  1.00  0.00     0.214 C 
HETATM    2  O   UNL     1      66.682   6.124   3.753  1.00  0.00    -0.391 OA
HETATM    3  C   UNL     1      67.687   6.687   5.891  1.00  0.00     0.075 C 
HETATM    4  C   UNL     1      65.806   8.036   4.987  1.00  0.00     0.075 C 
HETATM    5  C   UNL     1      67.237   5.572   4.935  1.00  0.00     0.170 C 
HETATM    6  C   UNL     1      65.501   6.845   4.059  1.00  0.00     0.170 C 
ENDROOT
BRANCH   1   7
HETATM    7  C   UNL     1      65.540   6.759   7.199  1.00  0.00     0.295 C 
HETATM    8  O   UNL     1      64.333   6.967   7.201  1.00  0.00    -0.262 OA
BRANCH   7   9
HETATM    9  O   UNL     1      66.076   5.823   8.026  1.00  0.00    -0.325 OA
HETATM   10  C   UNL     1      66.504   6.079   9.309  1.00  0.00     0.213 C 
ENDBRANCH   7   9
ENDBRANCH   1   7
BRANCH   1  11
HETATM   11  N   UNL     1      66.948   8.733   7.043  1.00  0.00    -0.061 N 
HETATM   12  H   UNL     1      67.095   8.480   8.020  1.00  0.00     0.275 HD
HETATM   13  H   UNL     1      66.249   9.474   6.985  1.00  0.00     0.275 HD
HETATM   14  H   UNL     1      67.825   9.062   6.641  1.00  0.00     0.275 HD
ENDBRANCH   1  11
TORSDOF 3
ENDMDL
MODEL 3
REMARK VINA RESULT:      -3.6      4.314      5.676
REMARK  3 active torsions:
REMARK  status: ('A' for Active; 'I' for Inactive)
REMARK    1  A    between atoms: C_1  and  C_2 
REMARK    2  A    between atoms: C_1  and  N_5 
REMARK    3  A    between atoms: C_2  and  O_8 
ROOT
HETATM    1  C   UNL     1      63.444   8.454   4.647  1.00  0.00     0.214 C 
HETATM    2  O   UNL     1      62.142  11.035   4.175  1.00  0.00    -0.391 OA
HETATM    3  C   UNL     1      62.634   8.795   3.375  1.00  0.00     0.075 C 
HETATM    4  C   UNL     1      63.961   9.795   5.224  1.00  0.00     0.075 C 
HETATM    5  C   UNL     1      61.552   9.837   3.700  1.00  0.00     0.170 C 
HETATM    6  C   UNL     1      62.806  10.799   5.404  1.00  0.00     0.170 C 
ENDROOT
BRANCH   1   7
HETATM    7  C   UNL     1      62.569   7.675   5.626  1.00  0.00     0.295 C 
HETATM    8  O   UNL     1      62.722   7.782   6.836  1.00  0.00    -0.262 OA
BRANCH   7   9
HETATM    9  O   UNL     1      61.627   6.832   5.126  1.00  0.00    -0.325 OA
HETATM   10  C   UNL     1      61.728   5.458   5.150  1.00  0.00     0.213 C 
ENDBRANCH   7   9
ENDBRANCH   1   7
BRANCH   1  11
HETATM   11  N   UNL     1      64.594   7.619   4.287  1.00  0.00    -0.061 N 
HETATM   12  H   UNL     1      65.224   8.149   3.685  1.00  0.00     0.275 HD
HETATM   13  H   UNL     1      64.270   6.788   3.792  1.00  0.00     0.275 HD
HETATM   14  H   UNL     1      65.089   7.338   5.133  1.00  0.00     0.275 HD
ENDBRANCH   1  11
TORSDOF 3
ENDMDL
MODEL 4
REMARK VINA RESULT:      -3.6      3.255      4.705
REMARK  3 active torsions:
REMARK  status: ('A' for Active; 'I' for Inactive)
REMARK    1  A    between atoms: C_1  and  C_2 
REMARK    2  A    between atoms: C_1  and  N_5 
REMARK    3  A    between atoms: C_2  and  O_8 
ROOT
HETATM    1  C   UNL     1      64.308   8.063   5.365  1.00  0.00     0.214 C 
HETATM    2  O   UNL     1      62.968   8.567   2.810  1.00  0.00    -0.391 OA
HETATM    3  C   UNL     1      64.649   7.328   4.049  1.00  0.00     0.075 C 
HETATM    4  C   UNL     1      63.697   9.431   4.971  1.00  0.00     0.075 C 
HETATM    5  C   UNL     1      63.410   7.262   3.143  1.00  0.00     0.170 C 
HETATM    6  C   UNL     1      62.535   9.248   3.975  1.00  0.00     0.170 C 
ENDROOT
BRANCH   1   7
HETATM    7  C   UNL     1      63.369   7.206   6.211  1.00  0.00     0.295 C 
HETATM    8  O   UNL     1      62.574   7.717   6.990  1.00  0.00    -0.262 OA
BRANCH   7   9
HETATM    9  O   UNL     1      63.451   5.854   6.104  1.00  0.00    -0.325 OA
HETATM   10  C   UNL     1      62.378   5.001   6.232  1.00  0.00     0.213 C 
ENDBRANCH   7   9
ENDBRANCH   1   7
BRANCH   1  11
HETATM   11  N   UNL     1      65.537   8.298   6.129  1.00  0.00    -0.061 N 
HETATM   12  H   UNL     1      65.324   8.299   7.127  1.00  0.00     0.275 HD
HETATM   13  H   UNL     1      65.935   9.200   5.866  1.00  0.00     0.275 HD
HETATM   14  H   UNL     1      66.210   7.559   5.926  1.00  0.00     0.275 HD
ENDBRANCH   1  11
TORSDOF 3
ENDMDL
MODEL 5
REMARK VINA RESULT:      -3.5      2.249      4.533
REMARK  3 active torsions:
REMARK  status: ('A' for Active; 'I' for Inactive)
REMARK    1  A    between atoms: C_1  and  C_2 
REMARK    2  A    between atoms: C_1  and  N_5 
REMARK    3  A    between atoms: C_2  and  O_8 
ROOT
HETATM    1  C   UNL     1      63.671   8.508   5.263  1.00  0.00     0.214 C 
HETATM    2  O   UNL     1      62.673   6.071   3.981  1.00  0.00    -0.391 OA
HETATM    3  C   UNL     1      63.522   8.333   3.735  1.00  0.00     0.075 C 
HETATM    4  C   UNL     1      62.660   7.541   5.927  1.00  0.00     0.075 C 
HETATM    5  C   UNL     1      63.675   6.852   3.354  1.00  0.00     0.170 C 
HETATM    6  C   UNL     1      62.834   6.108   5.388  1.00  0.00     0.170 C 
ENDROOT
BRANCH   1   7
HETATM    7  C   UNL     1      65.117   8.246   5.678  1.00  0.00     0.295 C 
HETATM    8  O   UNL     1      66.052   8.572   4.957  1.00  0.00    -0.262 OA
BRANCH   7   9
HETATM    9  O   UNL     1      65.349   7.612   6.857  1.00  0.00    -0.325 OA
HETATM   10  C   UNL     1      66.438   6.806   7.101  1.00  0.00     0.213 C 
ENDBRANCH   7   9
ENDBRANCH   1   7
BRANCH   1  11
HETATM   11  N   UNL     1      63.323   9.883   5.635  1.00  0.00    -0.061 N 
HETATM   12  H   UNL     1      63.012   9.905   6.606  1.00  0.00     0.275 HD
HETATM   13  H   UNL     1      62.574  10.220   5.030  1.00  0.00     0.275 HD
HETATM   14  H   UNL     1      64.142  10.482   5.527  1.00  0.00     0.275 HD
ENDBRANCH   1  11
TORSDOF 3
ENDMDL
MODEL 6
REMARK VINA RESULT:      -3.4      2.452      3.198
REMARK  3 active torsions:
REMARK  status: ('A' for Active; 'I' for Inactive)
REMARK    1  A    between atoms: C_1  and  C_2 
REMARK    2  A    between atoms: C_1  and  N_5 
REMARK    3  A    between atoms: C_2  and  O_8 
ROOT
HETATM    1  C   UNL     1      64.380   6.676   5.468  1.00  0.00     0.214 C 
HETATM    2  O   UNL     1      66.801   7.194   7.034  1.00  0.00    -0.391 OA
HETATM    3  C   UNL     1      65.659   7.328   4.895  1.00  0.00     0.075 C 
HETATM    4  C   UNL     1      64.818   5.819   6.682  1.00  0.00     0.075 C 
HETATM    5  C   UNL     1      66.410   8.083   6.002  1.00  0.00     0.170 C 
HETATM    6  C   UNL     1      65.657   6.652   7.670  1.00  0.00     0.170 C 
ENDROOT
BRANCH   1   7
HETATM    7  C   UNL     1      63.364   7.757   5.829  1.00  0.00     0.295 C 
HETATM    8  O   UNL     1      62.747   7.718   6.886  1.00  0.00    -0.262 OA
BRANCH   7   9
HETATM    9  O   UNL     1      63.134   8.755   4.937  1.00  0.00    -0.325 OA
HETATM   10  C   UNL     1      63.004  10.083   5.279  1.00  0.00     0.213 C 
ENDBRANCH   7   9
ENDBRANCH   1   7
BRANCH   1  11
HETATM   11  N   UNL     1      63.783   5.795   4.459  1.00  0.00    -0.061 N 
HETATM   12  H   UNL     1      63.142   5.144   4.912  1.00  0.00     0.275 HD
HETATM   13  H   UNL     1      64.521   5.273   3.985  1.00  0.00     0.275 HD
HETATM   14  H   UNL     1      63.274   6.357   3.777  1.00  0.00     0.275 HD
ENDBRANCH   1  11
TORSDOF 3
ENDMDL
MODEL 7
REMARK VINA RESULT:      -3.4      6.163      7.435
REMARK  3 active torsions:
REMARK  status: ('A' for Active; 'I' for Inactive)
REMARK    1  A    between atoms: C_1  and  C_2 
REMARK    2  A    between atoms: C_1  and  N_5 
REMARK    3  A    between atoms: C_2  and  O_8 
ROOT
HETATM    1  C   UNL     1      62.240   8.499   2.515  1.00  0.00     0.214 C 
HETATM    2  O   UNL     1      62.201  11.387   3.004  1.00  0.00    -0.391 OA
HETATM    3  C   UNL     1      62.371   9.567   1.405  1.00  0.00     0.075 C 
HETATM    4  C   UNL     1      62.732   9.154   3.829  1.00  0.00     0.075 C 
HETATM    5  C   UNL     1      61.638  10.852   1.818  1.00  0.00     0.170 C 
HETATM    6  C   UNL     1      62.007  10.490   4.084  1.00  0.00     0.170 C 
ENDROOT
BRANCH   1   7
HETATM    7  C   UNL     1      60.797   8.004   2.592  1.00  0.00     0.295 C 
HETATM    8  O   UNL     1      60.179   8.017   3.649  1.00  0.00    -0.262 OA
BRANCH   7   9
HETATM    9  O   UNL     1      60.216   7.520   1.464  1.00  0.00    -0.325 OA
HETATM   10  C   UNL     1      58.981   7.914   0.999  1.00  0.00     0.213 C 
ENDBRANCH   7   9
ENDBRANCH   1   7
BRANCH   1  11
HETATM   11  N   UNL     1      63.106   7.358   2.203  1.00  0.00    -0.061 N 
HETATM   12  H   UNL     1      62.566   6.494   2.261  1.00  0.00     0.275 HD
HETATM   13  H   UNL     1      63.876   7.323   2.871  1.00  0.00     0.275 HD
HETATM   14  H   UNL     1      63.480   7.462   1.260  1.00  0.00     0.275 HD
ENDBRANCH   1  11
TORSDOF 3
ENDMDL
MODEL 8
REMARK VINA RESULT:      -3.3      3.264      4.247
REMARK  3 active torsions:
REMARK  status: ('A' for Active; 'I' for Inactive)
REMARK    1  A    between atoms: C_1  and  C_2 
REMARK    2  A    between atoms: C_1  and  N_5 
REMARK    3  A    between atoms: C_2  and  O_8 
ROOT
HETATM    1  C   UNL     1      63.413   8.543   4.806  1.00  0.00     0.214 C 
HETATM    2  O   UNL     1      65.301   6.733   3.486  1.00  0.00    -0.391 OA
HETATM    3  C   UNL     1      64.925   8.488   5.122  1.00  0.00     0.075 C 
HETATM    4  C   UNL     1      63.238   8.028   3.356  1.00  0.00     0.075 C 
HETATM    5  C   UNL     1      65.472   7.078   4.850  1.00  0.00     0.170 C 
HETATM    6  C   UNL     1      63.921   6.659   3.171  1.00  0.00     0.170 C 
ENDROOT
BRANCH   1   7
HETATM    7  C   UNL     1      62.637   7.721   5.833  1.00  0.00     0.295 C 
HETATM    8  O   UNL     1      62.952   7.725   7.016  1.00  0.00    -0.262 OA
BRANCH   7   9
HETATM    9  O   UNL     1      61.599   6.957   5.403  1.00  0.00    -0.325 OA
HETATM   10  C   UNL     1      61.338   5.682   5.854  1.00  0.00     0.213 C 
ENDBRANCH   7   9
ENDBRANCH   1   7
BRANCH   1  11
HETATM   11  N   UNL     1      62.947   9.931   4.874  1.00  0.00    -0.061 N 
HETATM   12  H   UNL     1      61.928   9.951   4.827  1.00  0.00     0.275 HD
HETATM   13  H   UNL     1      63.333  10.458   4.090  1.00  0.00     0.275 HD
HETATM   14  H   UNL     1      63.256  10.351   5.750  1.00  0.00     0.275 HD
ENDBRANCH   1  11
TORSDOF 3
ENDMDL
MODEL 9
REMARK VINA RESULT:      -3.2      3.764      4.354
REMARK  3 active torsions:
REMARK  status: ('A' for Active; 'I' for Inactive)
REMARK    1  A    between atoms: C_1  and  C_2 
REMARK    2  A    between atoms: C_1  and  N_5 
REMARK    3  A    between atoms: C_2  and  O_8 
ROOT
HETATM    1  C   UNL     1      64.053   8.093   5.339  1.00  0.00     0.214 C 
HETATM    2  O   UNL     1      62.354   5.866   4.484  1.00  0.00    -0.391 OA
HETATM    3  C   UNL     1      63.248   7.197   6.308  1.00  0.00     0.075 C 
HETATM    4  C   UNL     1      64.313   7.255   4.063  1.00  0.00     0.075 C 
HETATM    5  C   UNL     1      61.994   6.653   5.606  1.00  0.00     0.170 C 
HETATM    6  C   UNL     1      62.999   6.669   3.511  1.00  0.00     0.170 C 
ENDROOT
BRANCH   1   7
HETATM    7  C   UNL     1      63.285   9.384   5.065  1.00  0.00     0.295 C 
HETATM    8  O   UNL     1      63.002  10.158   5.971  1.00  0.00    -0.262 OA
BRANCH   7   9
HETATM    9  O   UNL     1      62.891   9.647   3.791  1.00  0.00    -0.325 OA
HETATM   10  C   UNL     1      61.896  10.539   3.457  1.00  0.00     0.213 C 
ENDBRANCH   7   9
ENDBRANCH   1   7
BRANCH   1  11
HETATM   11  N   UNL     1      65.342   8.440   5.948  1.00  0.00    -0.061 N 
HETATM   12  H   UNL     1      65.238   8.486   6.961  1.00  0.00     0.275 HD
HETATM   13  H   UNL     1      65.651   9.346   5.595  1.00  0.00     0.275 HD
HETATM   14  H   UNL     1      66.033   7.729   5.708  1.00  0.00     0.275 HD
ENDBRANCH   1  11
TORSDOF 3
ENDMDL
