MODEL 1
REMARK VINA RESULT:      -5.2      0.000      0.000
REMARK  1 active torsions:
REMARK  status: ('A' for Active; 'I' for Inactive)
REMARK    1  A    between atoms: C_1  and  C_2 
REMARK       I    between atoms: C_1  and  N_5 
ROOT
HETATM    1  C   UNL     1      64.092   8.372   4.705  1.00  0.00     0.034 A 
HETATM    2  C   UNL     1      63.807   7.608   3.573  1.00  0.00     0.049 A 
HETATM    3  C   UNL     1      62.825   7.987   2.669  1.00  0.00     0.060 A 
HETATM    4  N   UNL     1      62.676   7.275   1.537  1.00  0.00    -0.363 N 
ATOM      5  HN  UNL     1      63.248   6.454   1.340  1.00  0.00     0.165 HD
HETATM    6  N   UNL     1      61.064   9.518   2.086  1.00  0.00    -0.363 N 
ATOM      7  HN  UNL     1      60.469  10.323   2.282  1.00  0.00     0.165 HD
HETATM    8  C   UNL     1      62.021   9.120   2.947  1.00  0.00     0.059 A 
HETATM    9  C   UNL     1      63.266   9.464   4.998  1.00  0.00     0.019 A 
HETATM   10  C   UNL     1      62.236   9.820   4.124  1.00  0.00     0.033 A 
HETATM   11  C   UNL     1      61.729   7.706   0.678  1.00  0.00     0.105 A 
HETATM   12  C   UNL     1      60.933   8.798   0.950  1.00  0.00     0.105 A 
ENDROOT
BRANCH   1  13
HETATM   13  C   UNL     1      65.188   8.041   5.662  1.00  0.00     0.253 C 
HETATM   14  N   UNL     1      65.101   6.939   6.520  1.00  0.00    -0.357 N 
HETATM   15  C   UNL     1      66.204   6.690   7.436  1.00  0.00     0.152 C 
HETATM   16  C   UNL     1      64.019   5.965   6.575  1.00  0.00     0.152 C 
HETATM   17  O   UNL     1      66.180   8.770   5.629  1.00  0.00    -0.267 OA
ENDBRANCH   1  13
TORSDOF 1
ENDMDL
MODEL 2
REMARK VINA RESULT:      -5.1      2.013      3.097
REMARK  1 active torsions:
REMARK  status: ('A' for Active; 'I' for Inactive)
REMARK    1  A    between atoms: C_1  and  C_2 
REMARK       I    between atoms: C_1  and  N_5 
ROOT
HETATM    1  C   UNL     1      65.612   7.073   5.012  1.00  0.00     0.034 A 
HETATM    2  C   UNL     1      65.236   8.320   5.513  1.00  0.00     0.049 A 
HETATM    3  C   UNL     1      64.151   9.015   4.997  1.00  0.00     0.060 A 
HETATM    4  N   UNL     1      63.766  10.155   5.597  1.00  0.00    -0.363 N 
ATOM      5  HN  UNL     1      64.264  10.532   6.404  1.00  0.00     0.165 HD
HETATM    6  N   UNL     1      62.404   9.144   3.349  1.00  0.00    -0.363 N 
ATOM      7  HN  UNL     1      61.912   8.790   2.528  1.00  0.00     0.165 HD
HETATM    8  C   UNL     1      63.466   8.499   3.869  1.00  0.00     0.059 A 
HETATM    9  C   UNL     1      64.960   6.590   3.871  1.00  0.00     0.019 A 
HETATM   10  C   UNL     1      63.904   7.309   3.307  1.00  0.00     0.033 A 
HETATM   11  C   UNL     1      62.686  10.772   5.075  1.00  0.00     0.105 A 
HETATM   12  C   UNL     1      62.024  10.284   3.969  1.00  0.00     0.105 A 
ENDROOT
BRANCH   1  13
HETATM   13  C   UNL     1      66.724   6.261   5.586  1.00  0.00     0.253 C 
HETATM   14  N   UNL     1      66.489   5.287   6.563  1.00  0.00    -0.357 N 
HETATM   15  C   UNL     1      67.629   4.547   7.085  1.00  0.00     0.152 C 
HETATM   16  C   UNL     1      65.195   4.895   7.104  1.00  0.00     0.152 C 
HETATM   17  O   UNL     1      67.847   6.473   5.127  1.00  0.00    -0.267 OA
ENDBRANCH   1  13
TORSDOF 1
ENDMDL
MODEL 3
REMARK VINA RESULT:      -5.1      1.534      2.465
REMARK  1 active torsions:
REMARK  status: ('A' for Active; 'I' for Inactive)
REMARK    1  A    between atoms: C_1  and  C_2 
REMARK       I    between atoms: C_1  and  N_5 
ROOT
HETATM    1  C   UNL     1      64.298   7.690   5.164  1.00  0.00     0.034 A 
HETATM    2  C   UNL     1      63.734   8.956   4.998  1.00  0.00     0.049 A 
HETATM    3  C   UNL     1      63.025   9.292   3.853  1.00  0.00     0.060 A 
HETATM    4  N   UNL     1      62.406  10.484   3.800  1.00  0.00    -0.363 N 
ATOM      5  HN  UNL     1      62.464  11.154   4.567  1.00  0.00     0.165 HD
HETATM    6  N   UNL     1      62.268   8.659   1.659  1.00  0.00    -0.363 N 
ATOM      7  HN  UNL     1      62.222   8.009   0.875  1.00  0.00     0.165 HD
HETATM    8  C   UNL     1      62.954   8.367   2.781  1.00  0.00     0.059 A 
HETATM    9  C   UNL     1      64.262   6.798   4.086  1.00  0.00     0.019 A 
HETATM   10  C   UNL     1      63.602   7.148   2.906  1.00  0.00     0.033 A 
HETATM   11  C   UNL     1      61.704  10.746   2.678  1.00  0.00     0.105 A 
HETATM   12  C   UNL     1      61.644   9.858   1.625  1.00  0.00     0.105 A 
ENDROOT
BRANCH   1  13
HETATM   13  C   UNL     1      65.002   7.265   6.408  1.00  0.00     0.253 C 
HETATM   14  N   UNL     1      66.397   7.317   6.513  1.00  0.00    -0.357 N 
HETATM   15  C   UNL     1      67.012   6.870   7.754  1.00  0.00     0.152 C 
HETATM   16  C   UNL     1      67.325   7.816   5.507  1.00  0.00     0.152 C 
HETATM   17  O   UNL     1      64.288   6.900   7.343  1.00  0.00    -0.267 OA
ENDBRANCH   1  13
TORSDOF 1
ENDMDL
MODEL 4
REMARK VINA RESULT:      -5.1      1.098      1.404
REMARK  1 active torsions:
REMARK  status: ('A' for Active; 'I' for Inactive)
REMARK    1  A    between atoms: C_1  and  C_2 
REMARK       I    between atoms: C_1  and  N_5 
ROOT
HETATM    1  C   UNL     1      64.013   8.049   5.043  1.00  0.00     0.034 A 
HETATM    2  C   UNL     1      63.717   7.372   3.859  1.00  0.00     0.049 A 
HETATM    3  C   UNL     1      62.962   7.961   2.855  1.00  0.00     0.060 A 
HETATM    4  N   UNL     1      62.809   7.305   1.690  1.00  0.00    -0.363 N 
ATOM      5  HN  UNL     1      63.213   6.382   1.536  1.00  0.00     0.165 HD
HETATM    6  N   UNL     1      61.658   9.841   2.113  1.00  0.00    -0.363 N 
ATOM      7  HN  UNL     1      61.229  10.755   2.262  1.00  0.00     0.165 HD
HETATM    8  C   UNL     1      62.390   9.239   3.070  1.00  0.00     0.059 A 
HETATM    9  C   UNL     1      63.409   9.292   5.269  1.00  0.00     0.019 A 
HETATM   10  C   UNL     1      62.599   9.868   4.288  1.00  0.00     0.033 A 
HETATM   11  C   UNL     1      62.094   7.937   0.736  1.00  0.00     0.105 A 
HETATM   12  C   UNL     1      61.522   9.174   0.946  1.00  0.00     0.105 A 
ENDROOT
BRANCH   1  13
HETATM   13  C   UNL     1      64.881   7.482   6.116  1.00  0.00     0.253 C 
HETATM   14  N   UNL     1      66.267   7.370   5.951  1.00  0.00    -0.357 N 
HETATM   15  C   UNL     1      67.045   6.792   7.037  1.00  0.00     0.152 C 
HETATM   16  C   UNL     1      67.043   7.814   4.801  1.00  0.00     0.152 C 
HETATM   17  O   UNL     1      64.315   7.151   7.158  1.00  0.00    -0.267 OA
ENDBRANCH   1  13
TORSDOF 1
ENDMDL
MODEL 5
REMARK VINA RESULT:      -5.0      2.196      5.543
REMARK  1 active torsions:
REMARK  status: ('A' for Active; 'I' for Inactive)
REMARK    1  A    between atoms: C_1  and  C_2 
REMARK       I    between atoms: C_1  and  N_5 
ROOT
HETATM    1  C   UNL     1      63.121   8.453   4.030  1.00  0.00     0.034 A 
HETATM    2  C   UNL     1      64.262   8.751   4.776  1.00  0.00     0.049 A 
HETATM    3  C   UNL     1      64.778   7.859   5.704  1.00  0.00     0.060 A 
HETATM    4  N   UNL     1      65.945   8.152   6.306  1.00  0.00    -0.363 N 
ATOM      5  HN  UNL     1      66.446   9.019   6.115  1.00  0.00     0.165 HD
HETATM    6  N   UNL     1      64.555   5.768   6.872  1.00  0.00    -0.363 N 
ATOM      7  HN  UNL     1      64.053   4.907   7.090  1.00  0.00     0.165 HD
HETATM    8  C   UNL     1      64.078   6.658   5.981  1.00  0.00     0.059 A 
HETATM    9  C   UNL     1      62.410   7.287   4.339  1.00  0.00     0.019 A 
HETATM   10  C   UNL     1      62.888   6.409   5.314  1.00  0.00     0.033 A 
HETATM   11  C   UNL     1      66.417   7.234   7.176  1.00  0.00     0.105 A 
HETATM   12  C   UNL     1      65.733   6.072   7.461  1.00  0.00     0.105 A 
ENDROOT
BRANCH   1  13
HETATM   13  C   UNL     1      62.577   9.351   2.970  1.00  0.00     0.253 C 
HETATM   14  N   UNL     1      62.156  10.654   3.261  1.00  0.00    -0.357 N 
HETATM   15  C   UNL     1      61.622  11.464   2.175  1.00  0.00     0.152 C 
HETATM   16  C   UNL     1      62.228  11.321   4.554  1.00  0.00     0.152 C 
HETATM   17  O   UNL     1      62.552   8.893   1.827  1.00  0.00    -0.267 OA
ENDBRANCH   1  13
TORSDOF 1
ENDMDL
MODEL 6
REMARK VINA RESULT:      -5.0      1.864      5.467
REMARK  1 active torsions:
REMARK  status: ('A' for Active; 'I' for Inactive)
REMARK    1  A    between atoms: C_1  and  C_2 
REMARK       I    between atoms: C_1  and  N_5 
ROOT
HETATM    1  C   UNL     1      63.649   8.690   5.183  1.00  0.00     0.034 A 
HETATM    2  C   UNL     1      65.039   8.571   5.186  1.00  0.00     0.049 A 
HETATM    3  C   UNL     1      65.671   7.436   5.674  1.00  0.00     0.060 A 
HETATM    4  N   UNL     1      67.006   7.330   5.542  1.00  0.00    -0.363 N 
ATOM      5  HN  UNL     1      67.564   8.069   5.116  1.00  0.00     0.165 HD
HETATM    6  N   UNL     1      65.480   5.297   6.756  1.00  0.00    -0.363 N 
ATOM      7  HN  UNL     1      64.936   4.561   7.206  1.00  0.00     0.165 HD
HETATM    8  C   UNL     1      64.899   6.414   6.278  1.00  0.00     0.059 A 
HETATM    9  C   UNL     1      62.894   7.698   5.820  1.00  0.00     0.019 A 
HETATM   10  C   UNL     1      63.525   6.578   6.368  1.00  0.00     0.033 A 
HETATM   11  C   UNL     1      67.565   6.192   6.005  1.00  0.00     0.105 A 
HETATM   12  C   UNL     1      66.820   5.201   6.608  1.00  0.00     0.105 A 
ENDROOT
BRANCH   1  13
HETATM   13  C   UNL     1      62.928   9.859   4.600  1.00  0.00     0.253 C 
HETATM   14  N   UNL     1      62.439   9.837   3.288  1.00  0.00    -0.357 N 
HETATM   15  C   UNL     1      61.760  11.022   2.786  1.00  0.00     0.152 C 
HETATM   16  C   UNL     1      62.502   8.718   2.358  1.00  0.00     0.152 C 
HETATM   17  O   UNL     1      62.760  10.824   5.346  1.00  0.00    -0.267 OA
ENDBRANCH   1  13
TORSDOF 1
ENDMDL
MODEL 7
REMARK VINA RESULT:      -4.9      2.181      5.253
REMARK  1 active torsions:
REMARK  status: ('A' for Active; 'I' for Inactive)
REMARK    1  A    between atoms: C_1  and  C_2 
REMARK       I    between atoms: C_1  and  N_5 
ROOT
HETATM    1  C   UNL     1      62.569   8.462   2.847  1.00  0.00     0.034 A 
HETATM    2  C   UNL     1      63.533   7.464   2.988  1.00  0.00     0.049 A 
HETATM    3  C   UNL     1      64.358   7.401   4.102  1.00  0.00     0.060 A 
HETATM    4  N   UNL     1      65.186   6.350   4.238  1.00  0.00    -0.363 N 
ATOM      5  HN  UNL     1      65.240   5.614   3.534  1.00  0.00     0.165 HD
HETATM    6  N   UNL     1      65.075   8.395   6.172  1.00  0.00    -0.363 N 
ATOM      7  HN  UNL     1      65.049   9.137   6.871  1.00  0.00     0.165 HD
HETATM    8  C   UNL     1      64.293   8.429   5.075  1.00  0.00     0.059 A 
HETATM    9  C   UNL     1      62.540   9.498   3.787  1.00  0.00     0.019 A 
HETATM   10  C   UNL     1      63.406   9.477   4.883  1.00  0.00     0.033 A 
HETATM   11  C   UNL     1      65.942   6.323   5.355  1.00  0.00     0.105 A 
HETATM   12  C   UNL     1      65.895   7.328   6.298  1.00  0.00     0.105 A 
ENDROOT
BRANCH   1  13
HETATM   13  C   UNL     1      61.613   8.522   1.702  1.00  0.00     0.253 C 
HETATM   14  N   UNL     1      60.346   7.932   1.776  1.00  0.00    -0.357 N 
HETATM   15  C   UNL     1      59.476   8.020   0.612  1.00  0.00     0.152 C 
HETATM   16  C   UNL     1      59.769   7.256   2.930  1.00  0.00     0.152 C 
HETATM   17  O   UNL     1      61.990   9.145   0.709  1.00  0.00    -0.267 OA
ENDBRANCH   1  13
TORSDOF 1
ENDMDL
MODEL 8
REMARK VINA RESULT:      -4.8      2.474      2.706
REMARK  1 active torsions:
REMARK  status: ('A' for Active; 'I' for Inactive)
REMARK    1  A    between atoms: C_1  and  C_2 
REMARK       I    between atoms: C_1  and  N_5 
ROOT
HETATM    1  C   UNL     1      63.400   8.317   4.600  1.00  0.00     0.034 A 
HETATM    2  C   UNL     1      62.496   7.427   5.181  1.00  0.00     0.049 A 
HETATM    3  C   UNL     1      61.204   7.282   4.695  1.00  0.00     0.060 A 
HETATM    4  N   UNL     1      60.417   6.326   5.220  1.00  0.00    -0.363 N 
ATOM      5  HN  UNL     1      60.737   5.723   5.978  1.00  0.00     0.165 HD
HETATM    6  N   UNL     1      59.509   8.007   3.150  1.00  0.00    -0.363 N 
ATOM      7  HN  UNL     1      59.168   8.618   2.409  1.00  0.00     0.165 HD
HETATM    8  C   UNL     1      60.754   8.126   3.650  1.00  0.00     0.059 A 
HETATM    9  C   UNL     1      62.937   9.178   3.599  1.00  0.00     0.019 A 
HETATM   10  C   UNL     1      61.621   9.081   3.141  1.00  0.00     0.033 A 
HETATM   11  C   UNL     1      59.182   6.207   4.688  1.00  0.00     0.105 A 
HETATM   12  C   UNL     1      58.734   7.035   3.682  1.00  0.00     0.105 A 
ENDROOT
BRANCH   1  13
HETATM   13  C   UNL     1      64.819   8.449   5.044  1.00  0.00     0.253 C 
HETATM   14  N   UNL     1      65.801   7.541   4.633  1.00  0.00    -0.357 N 
HETATM   15  C   UNL     1      67.160   7.728   5.121  1.00  0.00     0.152 C 
HETATM   16  C   UNL     1      65.620   6.422   3.718  1.00  0.00     0.152 C 
HETATM   17  O   UNL     1      65.078   9.417   5.760  1.00  0.00    -0.267 OA
ENDBRANCH   1  13
TORSDOF 1
ENDMDL
MODEL 9
REMARK VINA RESULT:      -4.7      2.041      2.657
REMARK  1 active torsions:
REMARK  status: ('A' for Active; 'I' for Inactive)
REMARK    1  A    between atoms: C_1  and  C_2 
REMARK       I    between atoms: C_1  and  N_5 
ROOT
HETATM    1  C   UNL     1      62.518   8.671   3.726  1.00  0.00     0.034 A 
HETATM    2  C   UNL     1      61.386   7.896   3.980  1.00  0.00     0.049 A 
HETATM    3  C   UNL     1      60.377   7.752   3.038  1.00  0.00     0.060 A 
HETATM    4  N   UNL     1      59.369   6.899   3.294  1.00  0.00    -0.363 N 
ATOM      5  HN  UNL     1      59.315   6.376   4.167  1.00  0.00     0.165 HD
HETATM    6  N   UNL     1      59.484   8.364   0.890  1.00  0.00    -0.363 N 
ATOM      7  HN  UNL     1      59.512   8.898   0.022  1.00  0.00     0.165 HD
HETATM    8  C   UNL     1      60.443   8.486   1.828  1.00  0.00     0.059 A 
HETATM    9  C   UNL     1      62.557   9.429   2.550  1.00  0.00     0.019 A 
HETATM   10  C   UNL     1      61.518   9.337   1.620  1.00  0.00     0.033 A 
HETATM   11  C   UNL     1      58.432   6.772   2.330  1.00  0.00     0.105 A 
HETATM   12  C   UNL     1      58.482   7.496   1.158  1.00  0.00     0.105 A 
ENDROOT
BRANCH   1  13
HETATM   13  C   UNL     1      63.658   8.793   4.680  1.00  0.00     0.253 C 
HETATM   14  N   UNL     1      64.726   7.888   4.663  1.00  0.00    -0.357 N 
HETATM   15  C   UNL     1      65.794   8.064   5.636  1.00  0.00     0.152 C 
HETATM   16  C   UNL     1      64.912   6.784   3.731  1.00  0.00     0.152 C 
HETATM   17  O   UNL     1      63.621   9.749   5.456  1.00  0.00    -0.267 OA
ENDBRANCH   1  13
TORSDOF 1
ENDMDL
