MODEL 1
REMARK VINA RESULT:      -5.3      0.000      0.000
REMARK  1 active torsions:
REMARK  status: ('A' for Active; 'I' for Inactive)
REMARK    1  A    between atoms: C_1  and  C_3 
REMARK       I    between atoms: C_3  and  N_7 
ROOT
HETATM    1  C   UNL     1      62.867   8.602   4.684  1.00  0.00     0.120 A 
HETATM    2  N   UNL     1      62.646   9.954   4.567  1.00  0.00    -0.291 N 
HETATM    3  N   UNL     1      62.235  10.327   3.335  1.00  0.00    -0.303 N 
ATOM      4  HN  UNL     1      62.043  11.272   2.999  1.00  0.00     0.186 HD
HETATM    5  C   UNL     1      62.448   8.078   3.473  1.00  0.00     0.063 A 
HETATM    6  C   UNL     1      62.140   9.182   2.658  1.00  0.00     0.024 A 
HETATM    7  C   UNL     1      62.879  10.989   5.550  1.00  0.00     0.178 C 
HETATM    8  C   UNL     1      61.775   9.188   1.224  1.00  0.00     0.070 C 
ENDROOT
BRANCH   1   9
HETATM    9  C   UNL     1      63.350   7.930   5.869  1.00  0.00     0.272 C 
HETATM   10  N   UNL     1      64.671   7.484   5.862  1.00  0.00    -0.343 N 
HETATM   11  C   UNL     1      65.125   6.570   6.910  1.00  0.00     0.152 C 
HETATM   12  C   UNL     1      65.781   8.121   5.141  1.00  0.00     0.152 C 
HETATM   13  C   UNL     1      66.089   5.543   6.308  1.00  0.00     0.187 C 
HETATM   14  O   UNL     1      67.202   6.193   5.668  1.00  0.00    -0.388 OA
HETATM   15  C   UNL     1      66.754   7.061   4.614  1.00  0.00     0.187 C 
HETATM   16  O   UNL     1      62.613   7.712   6.831  1.00  0.00    -0.266 OA
ENDBRANCH   1   9
TORSDOF 1
ENDMDL
MODEL 2
REMARK VINA RESULT:      -5.0      2.056      5.146
REMARK  1 active torsions:
REMARK  status: ('A' for Active; 'I' for Inactive)
REMARK    1  A    between atoms: C_1  and  C_3 
REMARK       I    between atoms: C_3  and  N_7 
ROOT
HETATM    1  C   UNL     1      64.148   8.407   5.288  1.00  0.00     0.120 A 
HETATM    2  N   UNL     1      63.836   7.193   5.853  1.00  0.00    -0.291 N 
HETATM    3  N   UNL     1      64.880   6.336   5.897  1.00  0.00    -0.303 N 
ATOM      4  HN  UNL     1      64.885   5.374   6.236  1.00  0.00     0.186 HD
HETATM    5  C   UNL     1      65.514   8.347   5.072  1.00  0.00     0.063 A 
HETATM    6  C   UNL     1      65.900   7.032   5.395  1.00  0.00     0.024 A 
HETATM    7  C   UNL     1      62.548   6.721   6.308  1.00  0.00     0.178 C 
HETATM    8  C   UNL     1      67.225   6.397   5.215  1.00  0.00     0.070 C 
ENDROOT
BRANCH   1   9
HETATM    9  C   UNL     1      63.222   9.495   5.072  1.00  0.00     0.272 C 
HETATM   10  N   UNL     1      62.553   9.539   3.850  1.00  0.00    -0.343 N 
HETATM   11  C   UNL     1      61.821  10.748   3.474  1.00  0.00     0.152 C 
HETATM   12  C   UNL     1      62.171   8.369   3.046  1.00  0.00     0.152 C 
HETATM   13  C   UNL     1      61.988  10.999   1.972  1.00  0.00     0.187 C 
HETATM   14  O   UNL     1      61.542   9.865   1.207  1.00  0.00    -0.388 OA
HETATM   15  C   UNL     1      62.289   8.687   1.552  1.00  0.00     0.187 C 
HETATM   16  O   UNL     1      63.064  10.381   5.912  1.00  0.00    -0.266 OA
ENDBRANCH   1   9
TORSDOF 1
ENDMDL
MODEL 3
REMARK VINA RESULT:      -4.7      1.841      2.091
REMARK  1 active torsions:
REMARK  status: ('A' for Active; 'I' for Inactive)
REMARK    1  A    between atoms: C_1  and  C_3 
REMARK       I    between atoms: C_3  and  N_7 
ROOT
HETATM    1  C   UNL     1      63.344   8.398   4.491  1.00  0.00     0.120 A 
HETATM    2  N   UNL     1      62.379   7.532   4.949  1.00  0.00    -0.291 N 
HETATM    3  N   UNL     1      61.341   7.383   4.097  1.00  0.00    -0.303 N 
ATOM      4  HN  UNL     1      60.497   6.826   4.231  1.00  0.00     0.186 HD
HETATM    5  C   UNL     1      62.937   8.720   3.207  1.00  0.00     0.063 A 
HETATM    6  C   UNL     1      61.669   8.131   3.043  1.00  0.00     0.024 A 
HETATM    7  C   UNL     1      62.313   6.858   6.227  1.00  0.00     0.178 C 
HETATM    8  C   UNL     1      60.732   8.278   1.907  1.00  0.00     0.070 C 
ENDROOT
BRANCH   1   9
HETATM    9  C   UNL     1      64.539   8.779   5.208  1.00  0.00     0.272 C 
HETATM   10  N   UNL     1      65.575   7.847   5.275  1.00  0.00    -0.343 N 
HETATM   11  C   UNL     1      66.682   8.070   6.204  1.00  0.00     0.152 C 
HETATM   12  C   UNL     1      65.888   6.847   4.245  1.00  0.00     0.152 C 
HETATM   13  C   UNL     1      67.115   6.731   6.811  1.00  0.00     0.187 C 
HETATM   14  O   UNL     1      67.481   5.794   5.783  1.00  0.00    -0.388 OA
HETATM   15  C   UNL     1      66.379   5.549   4.894  1.00  0.00     0.187 C 
HETATM   16  O   UNL     1      64.625   9.864   5.784  1.00  0.00    -0.266 OA
ENDBRANCH   1   9
TORSDOF 1
ENDMDL
MODEL 4
REMARK VINA RESULT:      -4.7      2.009      5.126
REMARK  1 active torsions:
REMARK  status: ('A' for Active; 'I' for Inactive)
REMARK    1  A    between atoms: C_1  and  C_3 
REMARK       I    between atoms: C_3  and  N_7 
ROOT
HETATM    1  C   UNL     1      65.632   7.226   5.176  1.00  0.00     0.120 A 
HETATM    2  N   UNL     1      65.945   6.246   6.087  1.00  0.00    -0.291 N 
HETATM    3  N   UNL     1      66.544   5.168   5.534  1.00  0.00    -0.303 N 
ATOM      4  HN  UNL     1      66.836   4.307   5.998  1.00  0.00     0.186 HD
HETATM    5  C   UNL     1      66.183   6.781   3.987  1.00  0.00     0.063 A 
HETATM    6  C   UNL     1      66.666   5.484   4.244  1.00  0.00     0.024 A 
HETATM    7  C   UNL     1      65.639   6.204   7.500  1.00  0.00     0.178 C 
HETATM    8  C   UNL     1      67.225   4.509   3.283  1.00  0.00     0.070 C 
ENDROOT
BRANCH   1   9
HETATM    9  C   UNL     1      64.950   8.464   5.477  1.00  0.00     0.272 C 
HETATM   10  N   UNL     1      63.641   8.606   5.020  1.00  0.00    -0.343 N 
HETATM   11  C   UNL     1      63.006   9.923   5.057  1.00  0.00     0.152 C 
HETATM   12  C   UNL     1      62.674   7.512   4.854  1.00  0.00     0.152 C 
HETATM   13  C   UNL     1      62.135  10.104   3.809  1.00  0.00     0.187 C 
HETATM   14  O   UNL     1      61.153   9.058   3.708  1.00  0.00    -0.388 OA
HETATM   15  C   UNL     1      61.782   7.768   3.635  1.00  0.00     0.187 C 
HETATM   16  O   UNL     1      65.517   9.383   6.069  1.00  0.00    -0.266 OA
ENDBRANCH   1   9
TORSDOF 1
ENDMDL
MODEL 5
REMARK VINA RESULT:      -4.6      2.285      5.850
REMARK  1 active torsions:
REMARK  status: ('A' for Active; 'I' for Inactive)
REMARK    1  A    between atoms: C_1  and  C_3 
REMARK       I    between atoms: C_3  and  N_7 
ROOT
HETATM    1  C   UNL     1      66.709   6.330   6.616  1.00  0.00     0.120 A 
HETATM    2  N   UNL     1      66.855   5.839   7.892  1.00  0.00    -0.291 N 
HETATM    3  N   UNL     1      67.353   4.583   7.931  1.00  0.00    -0.303 N 
ATOM      4  HN  UNL     1      67.516   4.001   8.753  1.00  0.00     0.186 HD
HETATM    5  C   UNL     1      67.269   5.357   5.805  1.00  0.00     0.063 A 
HETATM    6  C   UNL     1      67.581   4.278   6.653  1.00  0.00     0.024 A 
HETATM    7  C   UNL     1      66.470   6.458   9.141  1.00  0.00     0.178 C 
HETATM    8  C   UNL     1      68.075   2.934   6.280  1.00  0.00     0.070 C 
ENDROOT
BRANCH   1   9
HETATM    9  C   UNL     1      66.162   7.622   6.272  1.00  0.00     0.272 C 
HETATM   10  N   UNL     1      64.853   7.661   5.794  1.00  0.00    -0.343 N 
HETATM   11  C   UNL     1      64.348   8.889   5.181  1.00  0.00     0.152 C 
HETATM   12  C   UNL     1      63.781   6.731   6.173  1.00  0.00     0.152 C 
HETATM   13  C   UNL     1      63.445   8.533   3.996  1.00  0.00     0.187 C 
HETATM   14  O   UNL     1      62.364   7.678   4.409  1.00  0.00    -0.388 OA
HETATM   15  C   UNL     1      62.865   6.456   4.976  1.00  0.00     0.187 C 
HETATM   16  O   UNL     1      66.839   8.648   6.347  1.00  0.00    -0.266 OA
ENDBRANCH   1   9
TORSDOF 1
ENDMDL
MODEL 6
REMARK VINA RESULT:      -4.6      2.374      5.484
REMARK  1 active torsions:
REMARK  status: ('A' for Active; 'I' for Inactive)
REMARK    1  A    between atoms: C_1  and  C_3 
REMARK       I    between atoms: C_3  and  N_7 
ROOT
HETATM    1  C   UNL     1      66.050   7.508   6.471  1.00  0.00     0.120 A 
HETATM    2  N   UNL     1      67.350   7.305   6.075  1.00  0.00    -0.291 N 
HETATM    3  N   UNL     1      68.075   6.582   6.958  1.00  0.00    -0.303 N 
ATOM      4  HN  UNL     1      69.063   6.333   6.901  1.00  0.00     0.186 HD
HETATM    5  C   UNL     1      65.919   6.756   7.626  1.00  0.00     0.063 A 
HETATM    6  C   UNL     1      67.206   6.268   7.919  1.00  0.00     0.024 A 
HETATM    7  C   UNL     1      68.025   7.831   4.909  1.00  0.00     0.178 C 
HETATM    8  C   UNL     1      67.651   5.523   9.118  1.00  0.00     0.070 C 
ENDROOT
BRANCH   1   9
HETATM    9  C   UNL     1      65.063   8.278   5.749  1.00  0.00     0.272 C 
HETATM   10  N   UNL     1      64.177   7.583   4.927  1.00  0.00    -0.343 N 
HETATM   11  C   UNL     1      63.347   8.322   3.977  1.00  0.00     0.152 C 
HETATM   12  C   UNL     1      63.693   6.216   5.163  1.00  0.00     0.152 C 
HETATM   13  C   UNL     1      63.223   7.520   2.677  1.00  0.00     0.187 C 
HETATM   14  O   UNL     1      62.682   6.211   2.929  1.00  0.00    -0.388 OA
HETATM   15  C   UNL     1      63.520   5.474   3.834  1.00  0.00     0.187 C 
HETATM   16  O   UNL     1      65.034   9.508   5.813  1.00  0.00    -0.266 OA
ENDBRANCH   1   9
TORSDOF 1
ENDMDL
MODEL 7
REMARK VINA RESULT:      -4.3      2.880      5.461
REMARK  1 active torsions:
REMARK  status: ('A' for Active; 'I' for Inactive)
REMARK    1  A    between atoms: C_1  and  C_3 
REMARK       I    between atoms: C_3  and  N_7 
ROOT
HETATM    1  C   UNL     1      62.890   8.791   3.464  1.00  0.00     0.120 A 
HETATM    2  N   UNL     1      63.031   9.744   4.444  1.00  0.00    -0.291 N 
HETATM    3  N   UNL     1      63.882   9.381   5.430  1.00  0.00    -0.303 N 
ATOM      4  HN  UNL     1      64.120   9.902   6.274  1.00  0.00     0.186 HD
HETATM    5  C   UNL     1      63.810   7.812   3.800  1.00  0.00     0.063 A 
HETATM    6  C   UNL     1      64.338   8.187   5.049  1.00  0.00     0.024 A 
HETATM    7  C   UNL     1      62.334  11.004   4.577  1.00  0.00     0.178 C 
HETATM    8  C   UNL     1      65.259   7.423   5.920  1.00  0.00     0.070 C 
ENDROOT
BRANCH   1   9
HETATM    9  C   UNL     1      62.017   8.889   2.317  1.00  0.00     0.272 C 
HETATM   10  N   UNL     1      60.838   8.145   2.339  1.00  0.00    -0.343 N 
HETATM   11  C   UNL     1      60.060   7.995   1.109  1.00  0.00     0.152 C 
HETATM   12  C   UNL     1      60.070   7.801   3.544  1.00  0.00     0.152 C 
HETATM   13  C   UNL     1      59.482   6.578   1.042  1.00  0.00     0.187 C 
HETATM   14  O   UNL     1      58.679   6.293   2.201  1.00  0.00    -0.388 OA
HETATM   15  C   UNL     1      59.456   6.405   3.405  1.00  0.00     0.187 C 
HETATM   16  O   UNL     1      62.321   9.564   1.333  1.00  0.00    -0.266 OA
ENDBRANCH   1   9
TORSDOF 1
ENDMDL
MODEL 8
REMARK VINA RESULT:      -4.2      2.421      3.571
REMARK  1 active torsions:
REMARK  status: ('A' for Active; 'I' for Inactive)
REMARK    1  A    between atoms: C_1  and  C_3 
REMARK       I    between atoms: C_3  and  N_7 
ROOT
HETATM    1  C   UNL     1      65.337   7.262   4.680  1.00  0.00     0.120 A 
HETATM    2  N   UNL     1      65.544   8.218   5.645  1.00  0.00    -0.291 N 
HETATM    3  N   UNL     1      64.606   9.191   5.649  1.00  0.00    -0.303 N 
ATOM      4  HN  UNL     1      64.566  10.019   6.245  1.00  0.00     0.186 HD
HETATM    5  C   UNL     1      64.117   7.596   4.118  1.00  0.00     0.063 A 
HETATM    6  C   UNL     1      63.747   8.825   4.697  1.00  0.00     0.024 A 
HETATM    7  C   UNL     1      66.655   8.341   6.562  1.00  0.00     0.178 C 
HETATM    8  C   UNL     1      62.598   9.690   4.351  1.00  0.00     0.070 C 
ENDROOT
BRANCH   1   9
HETATM    9  C   UNL     1      66.201   6.134   4.417  1.00  0.00     0.272 C 
HETATM   10  N   UNL     1      66.342   5.182   5.426  1.00  0.00    -0.343 N 
HETATM   11  C   UNL     1      67.399   4.177   5.323  1.00  0.00     0.152 C 
HETATM   12  C   UNL     1      65.311   4.825   6.410  1.00  0.00     0.152 C 
HETATM   13  C   UNL     1      67.991   3.914   6.712  1.00  0.00     0.187 C 
HETATM   14  O   UNL     1      66.970   3.499   7.637  1.00  0.00    -0.388 OA
HETATM   15  C   UNL     1      65.952   4.506   7.764  1.00  0.00     0.187 C 
HETATM   16  O   UNL     1      66.831   6.037   3.364  1.00  0.00    -0.266 OA
ENDBRANCH   1   9
TORSDOF 1
ENDMDL
MODEL 9
REMARK VINA RESULT:      -4.1      2.213      5.251
REMARK  1 active torsions:
REMARK  status: ('A' for Active; 'I' for Inactive)
REMARK    1  A    between atoms: C_1  and  C_3 
REMARK       I    between atoms: C_3  and  N_7 
ROOT
HETATM    1  C   UNL     1      64.748   6.280   6.549  1.00  0.00     0.120 A 
HETATM    2  N   UNL     1      66.038   6.752   6.609  1.00  0.00    -0.291 N 
HETATM    3  N   UNL     1      66.928   5.831   7.040  1.00  0.00    -0.303 N 
ATOM      4  HN  UNL     1      67.929   5.954   7.198  1.00  0.00     0.186 HD
HETATM    5  C   UNL     1      64.859   4.933   6.848  1.00  0.00     0.063 A 
HETATM    6  C   UNL     1      66.202   4.725   7.212  1.00  0.00     0.024 A 
HETATM    7  C   UNL     1      66.515   8.093   6.356  1.00  0.00     0.178 C 
HETATM    8  C   UNL     1      66.825   3.496   7.751  1.00  0.00     0.070 C 
ENDROOT
BRANCH   1   9
HETATM    9  C   UNL     1      63.589   7.053   6.166  1.00  0.00     0.272 C 
HETATM   10  N   UNL     1      63.245   7.075   4.815  1.00  0.00    -0.343 N 
HETATM   11  C   UNL     1      62.260   8.045   4.340  1.00  0.00     0.152 C 
HETATM   12  C   UNL     1      63.473   5.980   3.862  1.00  0.00     0.152 C 
HETATM   13  C   UNL     1      62.676   8.559   2.957  1.00  0.00     0.187 C 
HETATM   14  O   UNL     1      62.825   7.472   2.027  1.00  0.00    -0.388 OA
HETATM   15  C   UNL     1      63.820   6.539   2.479  1.00  0.00     0.187 C 
HETATM   16  O   UNL     1      62.954   7.712   6.991  1.00  0.00    -0.266 OA
ENDBRANCH   1   9
TORSDOF 1
ENDMDL
