MODEL 1
REMARK VINA RESULT:      -4.2      0.000      0.000
REMARK  1 active torsions:
REMARK  status: ('A' for Active; 'I' for Inactive)
REMARK    1  A    between atoms: C_1  and  C_6 
REMARK       I    between atoms: C_6  and  N_9 
ROOT
HETATM    1  C   UNL     1      62.977   9.578   5.065  1.00  0.00     0.117 A 
HETATM    2  N   UNL     1      63.151   8.687   6.067  1.00  0.00    -0.294 N 
ATOM      3  HN  UNL     1      63.203   8.871   7.069  1.00  0.00     0.187 HD
HETATM    4  C   UNL     1      62.966   8.924   3.805  1.00  0.00     0.055 A 
HETATM    5  N   UNL     1      63.240   7.499   5.436  1.00  0.00    -0.307 N 
HETATM    6  C   UNL     1      63.141   7.590   4.080  1.00  0.00     0.112 A 
HETATM    7  C   UNL     1      63.412   6.294   6.210  1.00  0.00     0.177 C 
ENDROOT
BRANCH   1   8
HETATM    8  C   UNL     1      62.825  11.017   5.309  1.00  0.00     0.267 C 
HETATM    9  O   UNL     1      62.091  11.749   4.653  1.00  0.00    -0.266 OA
HETATM   10  N   UNL     1      63.575  11.501   6.345  1.00  0.00    -0.365 N 
HETATM   11  H   UNL     1      64.157  10.895   6.856  1.00  0.00     0.159 HD
HETATM   12  H   UNL     1      63.533  12.458   6.578  1.00  0.00     0.159 HD
ENDBRANCH   1   8
TORSDOF 1
ENDMDL
MODEL 2
REMARK VINA RESULT:      -4.2      2.662      3.413
REMARK  1 active torsions:
REMARK  status: ('A' for Active; 'I' for Inactive)
REMARK    1  A    between atoms: C_1  and  C_6 
REMARK       I    between atoms: C_6  and  N_9 
ROOT
HETATM    1  C   UNL     1      62.500  10.252   3.983  1.00  0.00     0.117 A 
HETATM    2  N   UNL     1      62.594   9.239   3.092  1.00  0.00    -0.294 N 
ATOM      3  HN  UNL     1      62.959   8.299   3.247  1.00  0.00     0.187 HD
HETATM    4  C   UNL     1      61.940  11.406   3.376  1.00  0.00     0.055 A 
HETATM    5  N   UNL     1      62.094   9.758   1.954  1.00  0.00    -0.307 N 
HETATM    6  C   UNL     1      61.694  11.055   2.072  1.00  0.00     0.112 A 
HETATM    7  C   UNL     1      62.017   8.936   0.771  1.00  0.00     0.177 C 
ENDROOT
BRANCH   1   8
HETATM    8  C   UNL     1      62.934  10.115   5.378  1.00  0.00     0.267 C 
HETATM    9  O   UNL     1      62.976   9.047   5.981  1.00  0.00    -0.266 OA
HETATM   10  N   UNL     1      63.300  11.288   5.978  1.00  0.00    -0.365 N 
HETATM   11  H   UNL     1      63.258  12.132   5.474  1.00  0.00     0.159 HD
HETATM   12  H   UNL     1      63.605  11.288   6.914  1.00  0.00     0.159 HD
ENDBRANCH   1   8
TORSDOF 1
ENDMDL
MODEL 3
REMARK VINA RESULT:      -4.1      2.023      2.411
REMARK  1 active torsions:
REMARK  status: ('A' for Active; 'I' for Inactive)
REMARK    1  A    between atoms: C_1  and  C_6 
REMARK       I    between atoms: C_6  and  N_9 
ROOT
HETATM    1  C   UNL     1      62.261   9.862   4.066  1.00  0.00     0.117 A 
HETATM    2  N   UNL     1      61.093   9.501   3.489  1.00  0.00    -0.294 N 
ATOM      3  HN  UNL     1      60.230  10.041   3.428  1.00  0.00     0.187 HD
HETATM    4  C   UNL     1      63.225   8.827   3.946  1.00  0.00     0.055 A 
HETATM    5  N   UNL     1      61.333   8.263   3.014  1.00  0.00    -0.307 N 
HETATM    6  C   UNL     1      62.594   7.813   3.267  1.00  0.00     0.112 A 
HETATM    7  C   UNL     1      60.293   7.560   2.303  1.00  0.00     0.177 C 
ENDROOT
BRANCH   1   8
HETATM    8  C   UNL     1      62.449  11.165   4.714  1.00  0.00     0.267 C 
HETATM    9  O   UNL     1      61.959  12.212   4.301  1.00  0.00    -0.266 OA
HETATM   10  N   UNL     1      63.226  11.136   5.839  1.00  0.00    -0.365 N 
HETATM   11  H   UNL     1      63.607  10.284   6.150  1.00  0.00     0.159 HD
HETATM   12  H   UNL     1      63.403  11.967   6.337  1.00  0.00     0.159 HD
ENDBRANCH   1   8
TORSDOF 1
ENDMDL
MODEL 4
REMARK VINA RESULT:      -3.9      3.268      3.347
REMARK  1 active torsions:
REMARK  status: ('A' for Active; 'I' for Inactive)
REMARK    1  A    between atoms: C_1  and  C_6 
REMARK       I    between atoms: C_6  and  N_9 
ROOT
HETATM    1  C   UNL     1      61.660   9.835   2.481  1.00  0.00     0.117 A 
HETATM    2  N   UNL     1      60.989   8.935   3.234  1.00  0.00    -0.294 N 
ATOM      3  HN  UNL     1      60.522   9.089   4.128  1.00  0.00     0.187 HD
HETATM    4  C   UNL     1      62.173   9.227   1.305  1.00  0.00     0.055 A 
HETATM    5  N   UNL     1      61.081   7.789   2.532  1.00  0.00    -0.307 N 
HETATM    6  C   UNL     1      61.784   7.912   1.372  1.00  0.00     0.112 A 
HETATM    7  C   UNL     1      60.448   6.594   3.035  1.00  0.00     0.177 C 
ENDROOT
BRANCH   1   8
HETATM    8  C   UNL     1      61.805  11.241   2.878  1.00  0.00     0.267 C 
HETATM    9  O   UNL     1      61.893  11.618   4.042  1.00  0.00    -0.266 OA
HETATM   10  N   UNL     1      61.838  12.126   1.836  1.00  0.00    -0.365 N 
HETATM   11  H   UNL     1      61.766  11.799   0.911  1.00  0.00     0.159 HD
HETATM   12  H   UNL     1      61.933  13.090   2.013  1.00  0.00     0.159 HD
ENDBRANCH   1   8
TORSDOF 1
ENDMDL
MODEL 5
REMARK VINA RESULT:      -3.9      2.033      2.049
REMARK  1 active torsions:
REMARK  status: ('A' for Active; 'I' for Inactive)
REMARK    1  A    between atoms: C_1  and  C_6 
REMARK       I    between atoms: C_6  and  N_9 
ROOT
HETATM    1  C   UNL     1      62.034   9.797   3.927  1.00  0.00     0.117 A 
HETATM    2  N   UNL     1      62.957   9.443   4.849  1.00  0.00    -0.294 N 
ATOM      3  HN  UNL     1      63.638  10.042   5.318  1.00  0.00     0.187 HD
HETATM    4  C   UNL     1      61.278   8.670   3.512  1.00  0.00     0.055 A 
HETATM    5  N   UNL     1      62.771   8.118   5.006  1.00  0.00    -0.307 N 
HETATM    6  C   UNL     1      61.780   7.608   4.222  1.00  0.00     0.112 A 
HETATM    7  C   UNL     1      63.585   7.392   5.950  1.00  0.00     0.177 C 
ENDROOT
BRANCH   1   8
HETATM    8  C   UNL     1      61.881  11.179   3.458  1.00  0.00     0.267 C 
HETATM    9  O   UNL     1      61.994  12.164   4.181  1.00  0.00    -0.266 OA
HETATM   10  N   UNL     1      61.595  11.300   2.127  1.00  0.00    -0.365 N 
HETATM   11  H   UNL     1      61.509  10.496   1.567  1.00  0.00     0.159 HD
HETATM   12  H   UNL     1      61.476  12.193   1.728  1.00  0.00     0.159 HD
ENDBRANCH   1   8
TORSDOF 1
ENDMDL
MODEL 6
REMARK VINA RESULT:      -3.8      2.485      3.516
REMARK  1 active torsions:
REMARK  status: ('A' for Active; 'I' for Inactive)
REMARK    1  A    between atoms: C_1  and  C_6 
REMARK       I    between atoms: C_6  and  N_9 
ROOT
HETATM    1  C   UNL     1      63.056   9.410   4.291  1.00  0.00     0.117 A 
HETATM    2  N   UNL     1      62.967   8.746   3.117  1.00  0.00    -0.294 N 
ATOM      3  HN  UNL     1      63.397   7.855   2.866  1.00  0.00     0.187 HD
HETATM    4  C   UNL     1      62.316  10.621   4.243  1.00  0.00     0.055 A 
HETATM    5  N   UNL     1      62.179   9.531   2.357  1.00  0.00    -0.307 N 
HETATM    6  C   UNL     1      61.768  10.668   2.985  1.00  0.00     0.112 A 
HETATM    7  C   UNL     1      61.844   9.116   1.016  1.00  0.00     0.177 C 
ENDROOT
BRANCH   1   8
HETATM    8  C   UNL     1      63.829   8.898   5.429  1.00  0.00     0.267 C 
HETATM    9  O   UNL     1      64.986   9.225   5.672  1.00  0.00    -0.266 OA
HETATM   10  N   UNL     1      63.156   8.010   6.220  1.00  0.00    -0.365 N 
HETATM   11  H   UNL     1      62.228   7.763   6.005  1.00  0.00     0.159 HD
HETATM   12  H   UNL     1      63.600   7.617   7.007  1.00  0.00     0.159 HD
ENDBRANCH   1   8
TORSDOF 1
ENDMDL
MODEL 7
REMARK VINA RESULT:      -3.6      4.266      5.390
REMARK  1 active torsions:
REMARK  status: ('A' for Active; 'I' for Inactive)
REMARK    1  A    between atoms: C_1  and  C_6 
REMARK       I    between atoms: C_6  and  N_9 
ROOT
HETATM    1  C   UNL     1      66.261   6.835   7.306  1.00  0.00     0.117 A 
HETATM    2  N   UNL     1      65.115   7.421   6.891  1.00  0.00    -0.294 N 
ATOM      3  HN  UNL     1      64.215   7.447   7.369  1.00  0.00     0.187 HD
HETATM    4  C   UNL     1      67.295   7.017   6.352  1.00  0.00     0.055 A 
HETATM    5  N   UNL     1      65.439   7.963   5.701  1.00  0.00    -0.307 N 
HETATM    6  C   UNL     1      66.732   7.744   5.332  1.00  0.00     0.112 A 
HETATM    7  C   UNL     1      64.444   8.703   4.962  1.00  0.00     0.177 C 
ENDROOT
BRANCH   1   8
HETATM    8  C   UNL     1      66.361   6.119   8.583  1.00  0.00     0.267 C 
HETATM    9  O   UNL     1      66.620   6.662   9.653  1.00  0.00    -0.266 OA
HETATM   10  N   UNL     1      66.139   4.773   8.501  1.00  0.00    -0.365 N 
HETATM   11  H   UNL     1      65.932   4.361   7.632  1.00  0.00     0.159 HD
HETATM   12  H   UNL     1      66.186   4.215   9.312  1.00  0.00     0.159 HD
ENDBRANCH   1   8
TORSDOF 1
ENDMDL
MODEL 8
REMARK VINA RESULT:      -3.4      4.648      5.726
REMARK  1 active torsions:
REMARK  status: ('A' for Active; 'I' for Inactive)
REMARK    1  A    between atoms: C_1  and  C_6 
REMARK       I    between atoms: C_6  and  N_9 
ROOT
HETATM    1  C   UNL     1      66.244   6.335   7.816  1.00  0.00     0.117 A 
HETATM    2  N   UNL     1      66.333   4.994   7.667  1.00  0.00    -0.294 N 
ATOM      3  HN  UNL     1      65.792   4.394   7.045  1.00  0.00     0.187 HD
HETATM    4  C   UNL     1      67.169   6.798   8.788  1.00  0.00     0.055 A 
HETATM    5  N   UNL     1      67.304   4.634   8.530  1.00  0.00    -0.307 N 
HETATM    6  C   UNL     1      67.831   5.678   9.228  1.00  0.00     0.112 A 
HETATM    7  C   UNL     1      67.691   3.248   8.627  1.00  0.00     0.177 C 
ENDROOT
BRANCH   1   8
HETATM    8  C   UNL     1      65.297   7.150   7.046  1.00  0.00     0.267 C 
HETATM    9  O   UNL     1      64.083   6.970   7.043  1.00  0.00    -0.266 OA
HETATM   10  N   UNL     1      65.872   8.151   6.314  1.00  0.00    -0.365 N 
HETATM   11  H   UNL     1      66.847   8.276   6.333  1.00  0.00     0.159 HD
HETATM   12  H   UNL     1      65.309   8.747   5.768  1.00  0.00     0.159 HD
ENDBRANCH   1   8
TORSDOF 1
ENDMDL
MODEL 9
REMARK VINA RESULT:      -3.4      2.838      3.585
REMARK  1 active torsions:
REMARK  status: ('A' for Active; 'I' for Inactive)
REMARK    1  A    between atoms: C_1  and  C_6 
REMARK       I    between atoms: C_6  and  N_9 
ROOT
HETATM    1  C   UNL     1      62.284   9.284   2.892  1.00  0.00     0.117 A 
HETATM    2  N   UNL     1      63.282   8.492   3.344  1.00  0.00    -0.294 N 
ATOM      3  HN  UNL     1      63.704   7.688   2.881  1.00  0.00     0.187 HD
HETATM    4  C   UNL     1      61.975  10.297   3.837  1.00  0.00     0.055 A 
HETATM    5  N   UNL     1      63.589   9.011   4.550  1.00  0.00    -0.307 N 
HETATM    6  C   UNL     1      62.830  10.090   4.891  1.00  0.00     0.112 A 
HETATM    7  C   UNL     1      64.649   8.420   5.329  1.00  0.00     0.177 C 
ENDROOT
BRANCH   1   8
HETATM    8  C   UNL     1      61.645   9.076   1.587  1.00  0.00     0.267 C 
HETATM    9  O   UNL     1      62.248   9.096   0.518  1.00  0.00    -0.266 OA
HETATM   10  N   UNL     1      60.297   8.852   1.642  1.00  0.00    -0.365 N 
HETATM   11  H   UNL     1      59.836   8.840   2.511  1.00  0.00     0.159 HD
HETATM   12  H   UNL     1      59.789   8.701   0.812  1.00  0.00     0.159 HD
ENDBRANCH   1   8
TORSDOF 1
ENDMDL
