MODEL 1
REMARK VINA RESULT:      -6.1      0.000      0.000
REMARK  1 active torsions:
REMARK  status: ('A' for Active; 'I' for Inactive)
REMARK    1  A    between atoms: C_2  and  C_4 
REMARK       I    between atoms: C_4  and  N_9 
ROOT
HETATM    1  C   UNL     1      63.921   8.812   4.598  1.00  0.00     0.092 A 
HETATM    2  C   UNL     1      62.947   9.767   4.340  1.00  0.00     0.065 A 
HETATM    3  O   UNL     1      64.876   8.913   5.576  1.00  0.00    -0.339 OA
HETATM    4  C   UNL     1      64.017   7.642   3.859  1.00  0.00    -0.021 A 
HETATM    5  C   UNL     1      65.605   7.659   5.558  1.00  0.00     0.064 C 
HETATM    6  C   UNL     1      65.164   6.831   4.331  1.00  0.00     0.079 C 
HETATM    7  C   UNL     1      62.045   9.503   3.297  1.00  0.00     0.020 A 
HETATM    8  C   UNL     1      63.134   7.377   2.825  1.00  0.00     0.010 A 
HETATM    9  C   UNL     1      62.138   8.317   2.548  1.00  0.00     0.002 A 
HETATM   10  C   UNL     1      65.286   6.938   6.870  1.00  0.00     0.046 C 
HETATM   11  C   UNL     1      67.088   8.027   5.493  1.00  0.00     0.046 C 
ENDROOT
BRANCH   2  12
HETATM   12  C   UNL     1      62.818  11.034   5.108  1.00  0.00     0.252 C 
HETATM   13  O   UNL     1      62.028  11.911   4.773  1.00  0.00    -0.268 OA
HETATM   14  N   UNL     1      63.610  11.193   6.207  1.00  0.00    -0.366 N 
HETATM   15  H   UNL     1      64.241  10.483   6.467  1.00  0.00     0.159 HD
HETATM   16  H   UNL     1      63.553  12.018   6.740  1.00  0.00     0.159 HD
ENDBRANCH   2  12
TORSDOF 1
ENDMDL
MODEL 2
REMARK VINA RESULT:      -5.8      1.857      2.169
REMARK  1 active torsions:
REMARK  status: ('A' for Active; 'I' for Inactive)
REMARK    1  A    between atoms: C_2  and  C_4 
REMARK       I    between atoms: C_4  and  N_9 
ROOT
HETATM    1  C   UNL     1      62.890   8.834   3.177  1.00  0.00     0.092 A 
HETATM    2  C   UNL     1      62.156   9.727   2.407  1.00  0.00     0.065 A 
HETATM    3  O   UNL     1      63.415   9.114   4.412  1.00  0.00    -0.339 OA
HETATM    4  C   UNL     1      63.169   7.546   2.743  1.00  0.00    -0.021 A 
HETATM    5  C   UNL     1      64.004   7.876   4.888  1.00  0.00     0.064 C 
HETATM    6  C   UNL     1      63.993   6.834   3.748  1.00  0.00     0.079 C 
HETATM    7  C   UNL     1      61.693   9.275   1.162  1.00  0.00     0.020 A 
HETATM    8  C   UNL     1      62.719   7.096   1.513  1.00  0.00     0.010 A 
HETATM    9  C   UNL     1      61.971   7.970   0.721  1.00  0.00     0.002 A 
HETATM   10  C   UNL     1      63.165   7.415   6.083  1.00  0.00     0.046 C 
HETATM   11  C   UNL     1      65.426   8.222   5.331  1.00  0.00     0.046 C 
ENDROOT
BRANCH   2  12
HETATM   12  C   UNL     1      61.843  11.115   2.839  1.00  0.00     0.252 C 
HETATM   13  O   UNL     1      61.598  11.384   4.011  1.00  0.00    -0.268 OA
HETATM   14  N   UNL     1      61.838  12.090   1.885  1.00  0.00    -0.366 N 
HETATM   15  H   UNL     1      62.036  11.863   0.948  1.00  0.00     0.159 HD
HETATM   16  H   UNL     1      61.634  13.020   2.134  1.00  0.00     0.159 HD
ENDBRANCH   2  12
TORSDOF 1
ENDMDL
MODEL 3
REMARK VINA RESULT:      -5.5      2.531      4.392
REMARK  1 active torsions:
REMARK  status: ('A' for Active; 'I' for Inactive)
REMARK    1  A    between atoms: C_2  and  C_4 
REMARK       I    between atoms: C_4  and  N_9 
ROOT
HETATM    1  C   UNL     1      62.422   8.715   3.402  1.00  0.00     0.092 A 
HETATM    2  C   UNL     1      62.836   8.941   4.708  1.00  0.00     0.065 A 
HETATM    3  O   UNL     1      62.426   7.492   2.781  1.00  0.00    -0.339 OA
HETATM    4  C   UNL     1      61.963   9.740   2.588  1.00  0.00    -0.021 A 
HETATM    5  C   UNL     1      61.820   7.700   1.479  1.00  0.00     0.064 C 
HETATM    6  C   UNL     1      61.625   9.215   1.245  1.00  0.00     0.079 C 
HETATM    7  C   UNL     1      62.767  10.258   5.187  1.00  0.00     0.020 A 
HETATM    8  C   UNL     1      61.898  11.043   3.053  1.00  0.00     0.010 A 
HETATM    9  C   UNL     1      62.300  11.299   4.365  1.00  0.00     0.002 A 
HETATM   10  C   UNL     1      60.484   6.953   1.484  1.00  0.00     0.046 C 
HETATM   11  C   UNL     1      62.777   7.084   0.459  1.00  0.00     0.046 C 
ENDROOT
BRANCH   2  12
HETATM   12  C   UNL     1      63.338   7.867   5.606  1.00  0.00     0.252 C 
HETATM   13  O   UNL     1      62.979   7.790   6.777  1.00  0.00    -0.268 OA
HETATM   14  N   UNL     1      64.214   6.961   5.084  1.00  0.00    -0.366 N 
HETATM   15  H   UNL     1      64.495   7.033   4.144  1.00  0.00     0.159 HD
HETATM   16  H   UNL     1      64.568   6.237   5.650  1.00  0.00     0.159 HD
ENDBRANCH   2  12
TORSDOF 1
ENDMDL
MODEL 4
REMARK VINA RESULT:      -5.3      1.443      3.803
REMARK  1 active torsions:
REMARK  status: ('A' for Active; 'I' for Inactive)
REMARK    1  A    between atoms: C_2  and  C_4 
REMARK       I    between atoms: C_4  and  N_9 
ROOT
HETATM    1  C   UNL     1      62.987   8.732   3.637  1.00  0.00     0.092 A 
HETATM    2  C   UNL     1      63.499   9.458   4.704  1.00  0.00     0.065 A 
HETATM    3  O   UNL     1      61.913   9.115   2.875  1.00  0.00    -0.339 OA
HETATM    4  C   UNL     1      63.530   7.518   3.246  1.00  0.00    -0.021 A 
HETATM    5  C   UNL     1      61.795   8.125   1.821  1.00  0.00     0.064 C 
HETATM    6  C   UNL     1      62.764   6.956   2.108  1.00  0.00     0.079 C 
HETATM    7  C   UNL     1      64.606   8.919   5.378  1.00  0.00     0.020 A 
HETATM    8  C   UNL     1      64.619   6.977   3.910  1.00  0.00     0.010 A 
HETATM    9  C   UNL     1      65.161   7.690   4.982  1.00  0.00     0.002 A 
HETATM   10  C   UNL     1      62.135   8.830   0.506  1.00  0.00     0.046 C 
HETATM   11  C   UNL     1      60.336   7.668   1.824  1.00  0.00     0.046 C 
ENDROOT
BRANCH   2  12
HETATM   12  C   UNL     1      62.939  10.760   5.153  1.00  0.00     0.252 C 
HETATM   13  O   UNL     1      61.997  11.289   4.571  1.00  0.00    -0.268 OA
HETATM   14  N   UNL     1      63.506  11.354   6.243  1.00  0.00    -0.366 N 
HETATM   15  H   UNL     1      64.261  10.920   6.702  1.00  0.00     0.159 HD
HETATM   16  H   UNL     1      63.162  12.216   6.568  1.00  0.00     0.159 HD
ENDBRANCH   2  12
TORSDOF 1
ENDMDL
MODEL 5
REMARK VINA RESULT:      -5.0      3.578      4.471
REMARK  1 active torsions:
REMARK  status: ('A' for Active; 'I' for Inactive)
REMARK    1  A    between atoms: C_2  and  C_4 
REMARK       I    between atoms: C_4  and  N_9 
ROOT
HETATM    1  C   UNL     1      60.920   8.455   2.805  1.00  0.00     0.092 A 
HETATM    2  C   UNL     1      61.758   9.532   2.553  1.00  0.00     0.065 A 
HETATM    3  O   UNL     1      60.259   8.238   3.987  1.00  0.00    -0.339 OA
HETATM    4  C   UNL     1      60.680   7.472   1.856  1.00  0.00    -0.021 A 
HETATM    5  C   UNL     1      59.425   7.069   3.772  1.00  0.00     0.064 C 
HETATM    6  C   UNL     1      59.779   6.434   2.410  1.00  0.00     0.079 C 
HETATM    7  C   UNL     1      62.357   9.600   1.286  1.00  0.00     0.020 A 
HETATM    8  C   UNL     1      61.272   7.530   0.605  1.00  0.00     0.010 A 
HETATM    9  C   UNL     1      62.114   8.608   0.321  1.00  0.00     0.002 A 
HETATM   10  C   UNL     1      57.971   7.545   3.813  1.00  0.00     0.046 C 
HETATM   11  C   UNL     1      59.713   6.120   4.936  1.00  0.00     0.046 C 
ENDROOT
BRANCH   2  12
HETATM   12  C   UNL     1      62.041  10.600   3.549  1.00  0.00     0.252 C 
HETATM   13  O   UNL     1      61.851  11.785   3.291  1.00  0.00    -0.268 OA
HETATM   14  N   UNL     1      62.521  10.220   4.768  1.00  0.00    -0.366 N 
HETATM   15  H   UNL     1      62.669   9.267   4.963  1.00  0.00     0.159 HD
HETATM   16  H   UNL     1      62.720  10.900   5.451  1.00  0.00     0.159 HD
ENDBRANCH   2  12
TORSDOF 1
ENDMDL
MODEL 6
REMARK VINA RESULT:      -5.0      2.431      4.288
REMARK  1 active torsions:
REMARK  status: ('A' for Active; 'I' for Inactive)
REMARK    1  A    between atoms: C_2  and  C_4 
REMARK       I    between atoms: C_4  and  N_9 
ROOT
HETATM    1  C   UNL     1      61.693   8.433   3.919  1.00  0.00     0.092 A 
HETATM    2  C   UNL     1      62.415   9.597   4.146  1.00  0.00     0.065 A 
HETATM    3  O   UNL     1      60.491   8.373   3.262  1.00  0.00    -0.339 OA
HETATM    4  C   UNL     1      62.138   7.195   4.359  1.00  0.00    -0.021 A 
HETATM    5  C   UNL     1      60.157   6.965   3.162  1.00  0.00     0.064 C 
HETATM    6  C   UNL     1      61.155   6.143   4.008  1.00  0.00     0.079 C 
HETATM    7  C   UNL     1      63.630   9.478   4.839  1.00  0.00     0.020 A 
HETATM    8  C   UNL     1      63.333   7.071   5.048  1.00  0.00     0.010 A 
HETATM    9  C   UNL     1      64.084   8.224   5.284  1.00  0.00     0.002 A 
HETATM   10  C   UNL     1      60.233   6.592   1.679  1.00  0.00     0.046 C 
HETATM   11  C   UNL     1      58.725   6.828   3.678  1.00  0.00     0.046 C 
ENDROOT
BRANCH   2  12
HETATM   12  C   UNL     1      61.966  10.941   3.693  1.00  0.00     0.252 C 
HETATM   13  O   UNL     1      61.961  11.905   4.451  1.00  0.00    -0.268 OA
HETATM   14  N   UNL     1      61.558  11.070   2.398  1.00  0.00    -0.366 N 
HETATM   15  H   UNL     1      61.566  10.289   1.799  1.00  0.00     0.159 HD
HETATM   16  H   UNL     1      61.254  11.944   2.063  1.00  0.00     0.159 HD
ENDBRANCH   2  12
TORSDOF 1
ENDMDL
MODEL 7
REMARK VINA RESULT:      -5.0      2.680      3.537
REMARK  1 active torsions:
REMARK  status: ('A' for Active; 'I' for Inactive)
REMARK    1  A    between atoms: C_2  and  C_4 
REMARK       I    between atoms: C_4  and  N_9 
ROOT
HETATM    1  C   UNL     1      62.822   8.602   3.443  1.00  0.00     0.092 A 
HETATM    2  C   UNL     1      62.099   9.418   2.582  1.00  0.00     0.065 A 
HETATM    3  O   UNL     1      63.186   7.308   3.171  1.00  0.00    -0.339 OA
HETATM    4  C   UNL     1      63.240   9.038   4.691  1.00  0.00    -0.021 A 
HETATM    5  C   UNL     1      64.008   6.880   4.288  1.00  0.00     0.064 C 
HETATM    6  C   UNL     1      63.955   7.951   5.400  1.00  0.00     0.079 C 
HETATM    7  C   UNL     1      61.810  10.720   3.020  1.00  0.00     0.020 A 
HETATM    8  C   UNL     1      62.952  10.320   5.131  1.00  0.00     0.010 A 
HETATM    9  C   UNL     1      62.234  11.166   4.283  1.00  0.00     0.002 A 
HETATM   10  C   UNL     1      65.429   6.693   3.751  1.00  0.00     0.046 C 
HETATM   11  C   UNL     1      63.430   5.544   4.756  1.00  0.00     0.046 C 
ENDROOT
BRANCH   2  12
HETATM   12  C   UNL     1      61.631   8.982   1.240  1.00  0.00     0.252 C 
HETATM   13  O   UNL     1      60.436   8.885   0.976  1.00  0.00    -0.268 OA
HETATM   14  N   UNL     1      62.577   8.692   0.301  1.00  0.00    -0.366 N 
HETATM   15  H   UNL     1      63.533   8.773   0.523  1.00  0.00     0.159 HD
HETATM   16  H   UNL     1      62.304   8.399  -0.599  1.00  0.00     0.159 HD
ENDBRANCH   2  12
TORSDOF 1
ENDMDL
MODEL 8
REMARK VINA RESULT:      -4.9      2.225      4.310
REMARK  1 active torsions:
REMARK  status: ('A' for Active; 'I' for Inactive)
REMARK    1  A    between atoms: C_2  and  C_4 
REMARK       I    between atoms: C_4  and  N_9 
ROOT
HETATM    1  C   UNL     1      63.042   8.135   4.489  1.00  0.00     0.092 A 
HETATM    2  C   UNL     1      63.985   7.619   5.368  1.00  0.00     0.065 A 
HETATM    3  O   UNL     1      63.285   9.131   3.578  1.00  0.00    -0.339 OA
HETATM    4  C   UNL     1      61.733   7.678   4.464  1.00  0.00    -0.021 A 
HETATM    5  C   UNL     1      62.064   9.277   2.808  1.00  0.00     0.064 C 
HETATM    6  C   UNL     1      60.948   8.428   3.456  1.00  0.00     0.079 C 
HETATM    7  C   UNL     1      63.566   6.600   6.237  1.00  0.00     0.020 A 
HETATM    8  C   UNL     1      61.311   6.676   5.323  1.00  0.00     0.010 A 
HETATM    9  C   UNL     1      62.240   6.133   6.213  1.00  0.00     0.002 A 
HETATM   10  C   UNL     1      62.376   8.808   1.384  1.00  0.00     0.046 C 
HETATM   11  C   UNL     1      61.727  10.768   2.820  1.00  0.00     0.046 C 
ENDROOT
BRANCH   2  12
HETATM   12  C   UNL     1      65.395   8.089   5.426  1.00  0.00     0.252 C 
HETATM   13  O   UNL     1      65.722   9.057   6.106  1.00  0.00    -0.268 OA
HETATM   14  N   UNL     1      66.322   7.405   4.695  1.00  0.00    -0.366 N 
HETATM   15  H   UNL     1      66.048   6.631   4.153  1.00  0.00     0.159 HD
HETATM   16  H   UNL     1      67.264   7.688   4.709  1.00  0.00     0.159 HD
ENDBRANCH   2  12
TORSDOF 1
ENDMDL
MODEL 9
REMARK VINA RESULT:      -4.8      1.910      4.254
REMARK  1 active torsions:
REMARK  status: ('A' for Active; 'I' for Inactive)
REMARK    1  A    between atoms: C_2  and  C_4 
REMARK       I    between atoms: C_4  and  N_9 
ROOT
HETATM    1  C   UNL     1      63.546   7.601   3.290  1.00  0.00     0.092 A 
HETATM    2  C   UNL     1      64.456   7.734   4.330  1.00  0.00     0.065 A 
HETATM    3  O   UNL     1      62.510   8.465   3.043  1.00  0.00    -0.339 OA
HETATM    4  C   UNL     1      63.605   6.546   2.391  1.00  0.00    -0.021 A 
HETATM    5  C   UNL     1      61.889   8.006   1.814  1.00  0.00     0.064 C 
HETATM    6  C   UNL     1      62.494   6.642   1.416  1.00  0.00     0.079 C 
HETATM    7  C   UNL     1      65.457   6.757   4.438  1.00  0.00     0.020 A 
HETATM    8  C   UNL     1      64.587   5.575   2.496  1.00  0.00     0.010 A 
HETATM    9  C   UNL     1      65.522   5.688   3.528  1.00  0.00     0.002 A 
HETATM   10  C   UNL     1      62.158   9.076   0.753  1.00  0.00     0.046 C 
HETATM   11  C   UNL     1      60.391   7.903   2.104  1.00  0.00     0.046 C 
ENDROOT
BRANCH   2  12
HETATM   12  C   UNL     1      64.419   8.849   5.314  1.00  0.00     0.252 C 
HETATM   13  O   UNL     1      65.442   9.274   5.841  1.00  0.00    -0.268 OA
HETATM   14  N   UNL     1      63.204   9.390   5.615  1.00  0.00    -0.366 N 
HETATM   15  H   UNL     1      62.390   9.041   5.186  1.00  0.00     0.159 HD
HETATM   16  H   UNL     1      63.141  10.129   6.262  1.00  0.00     0.159 HD
ENDBRANCH   2  12
TORSDOF 1
ENDMDL
