MODEL 1
REMARK VINA RESULT:      -4.8      0.000      0.000
REMARK  3 active torsions:
REMARK  status: ('A' for Active; 'I' for Inactive)
REMARK    1  A    between atoms: C_1  and  S_3 
REMARK    2  A    between atoms: C_2  and  C_4 
REMARK       I    between atoms: C_2  and  N_11 
REMARK    3  A    between atoms: S_3  and  C_12 
ROOT
HETATM    1  C   UNL     1      62.768   9.526   3.838  1.00  0.00     0.031 A 
HETATM    2  C   UNL     1      62.822   8.461   2.930  1.00  0.00     0.018 A 
HETATM    3  C   UNL     1      63.447   9.424   5.057  1.00  0.00     0.018 A 
HETATM    4  C   UNL     1      64.254   7.211   4.439  1.00  0.00     0.009 A 
HETATM    5  C   UNL     1      63.550   7.305   3.233  1.00  0.00     0.020 A 
HETATM    6  C   UNL     1      64.180   8.268   5.355  1.00  0.00     0.020 A 
ENDROOT
BRANCH   1   7
HETATM    7  C   UNL     1      62.018  10.750   3.450  1.00  0.00     0.249 C 
HETATM    8  O   UNL     1      62.050  11.760   4.143  1.00  0.00    -0.268 OA
HETATM    9  N   UNL     1      61.313  10.728   2.280  1.00  0.00    -0.366 N 
HETATM   10  H   UNL     1      61.296   9.911   1.731  1.00  0.00     0.159 HD
HETATM   11  H   UNL     1      60.823  11.530   1.985  1.00  0.00     0.159 HD
ENDBRANCH   1   7
BRANCH   4  12
HETATM   12  S   UNL     1      65.173   5.751   4.878  1.00  0.00    -0.016 SA
BRANCH  12  13
HETATM   13  C   UNL     1      66.870   6.357   4.846  1.00  0.00     0.448 C 
HETATM   14  F   UNL     1      67.263   6.942   5.999  1.00  0.00    -0.160 F 
HETATM   15  F   UNL     1      67.027   7.273   3.859  1.00  0.00    -0.160 F 
HETATM   16  F   UNL     1      67.739   5.348   4.592  1.00  0.00    -0.160 F 
ENDBRANCH  12  13
ENDBRANCH   4  12
TORSDOF 3
ENDMDL
MODEL 2
REMARK VINA RESULT:      -4.7      4.426      5.481
REMARK  3 active torsions:
REMARK  status: ('A' for Active; 'I' for Inactive)
REMARK    1  A    between atoms: C_1  and  S_3 
REMARK    2  A    between atoms: C_2  and  C_4 
REMARK       I    between atoms: C_2  and  N_11 
REMARK    3  A    between atoms: S_3  and  C_12 
ROOT
HETATM    1  C   UNL     1      65.387   7.972   4.925  1.00  0.00     0.031 A 
HETATM    2  C   UNL     1      64.455   8.986   5.184  1.00  0.00     0.018 A 
HETATM    3  C   UNL     1      65.057   6.948   4.032  1.00  0.00     0.018 A 
HETATM    4  C   UNL     1      62.883   7.970   3.639  1.00  0.00     0.009 A 
HETATM    5  C   UNL     1      63.205   8.977   4.556  1.00  0.00     0.020 A 
HETATM    6  C   UNL     1      63.807   6.946   3.399  1.00  0.00     0.020 A 
ENDROOT
BRANCH   1   7
HETATM    7  C   UNL     1      66.718   8.051   5.584  1.00  0.00     0.249 C 
HETATM    8  O   UNL     1      67.747   7.805   4.966  1.00  0.00    -0.268 OA
HETATM    9  N   UNL     1      66.765   8.434   6.894  1.00  0.00    -0.366 N 
HETATM   10  H   UNL     1      65.932   8.630   7.380  1.00  0.00     0.159 HD
HETATM   11  H   UNL     1      67.633   8.516   7.352  1.00  0.00     0.159 HD
ENDBRANCH   1   7
BRANCH   4  12
HETATM   12  S   UNL     1      61.295   7.905   2.834  1.00  0.00    -0.016 SA
BRANCH  12  13
HETATM   13  C   UNL     1      61.534   9.041   1.455  1.00  0.00     0.448 C 
HETATM   14  F   UNL     1      61.522  10.345   1.813  1.00  0.00    -0.160 F 
HETATM   15  F   UNL     1      60.560   8.872   0.527  1.00  0.00    -0.160 F 
HETATM   16  F   UNL     1      62.717   8.807   0.836  1.00  0.00    -0.160 F 
ENDBRANCH  12  13
ENDBRANCH   4  12
TORSDOF 3
ENDMDL
MODEL 3
REMARK VINA RESULT:      -4.6      1.656      1.848
REMARK  3 active torsions:
REMARK  status: ('A' for Active; 'I' for Inactive)
REMARK    1  A    between atoms: C_1  and  S_3 
REMARK    2  A    between atoms: C_2  and  C_4 
REMARK       I    between atoms: C_2  and  N_11 
REMARK    3  A    between atoms: S_3  and  C_12 
ROOT
HETATM    1  C   UNL     1      62.958   9.025   4.040  1.00  0.00     0.031 A 
HETATM    2  C   UNL     1      63.191   7.827   3.352  1.00  0.00     0.018 A 
HETATM    3  C   UNL     1      63.852   9.429   5.037  1.00  0.00     0.018 A 
HETATM    4  C   UNL     1      65.220   7.456   4.633  1.00  0.00     0.009 A 
HETATM    5  C   UNL     1      64.308   7.040   3.656  1.00  0.00     0.020 A 
HETATM    6  C   UNL     1      64.973   8.642   5.334  1.00  0.00     0.020 A 
ENDROOT
BRANCH   1   7
HETATM    7  C   UNL     1      61.782   9.846   3.650  1.00  0.00     0.249 C 
HETATM    8  O   UNL     1      61.639  10.989   4.071  1.00  0.00    -0.268 OA
HETATM    9  N   UNL     1      60.877   9.303   2.784  1.00  0.00    -0.366 N 
HETATM   10  H   UNL     1      61.002   8.385   2.452  1.00  0.00     0.159 HD
HETATM   11  H   UNL     1      60.098   9.830   2.491  1.00  0.00     0.159 HD
ENDBRANCH   1   7
BRANCH   4  12
HETATM   12  S   UNL     1      66.641   6.476   5.068  1.00  0.00    -0.016 SA
BRANCH  12  13
HETATM   13  C   UNL     1      66.391   6.225   6.835  1.00  0.00     0.448 C 
HETATM   14  F   UNL     1      66.802   7.264   7.598  1.00  0.00    -0.160 F 
HETATM   15  F   UNL     1      67.064   5.127   7.259  1.00  0.00    -0.160 F 
HETATM   16  F   UNL     1      65.080   6.019   7.113  1.00  0.00    -0.160 F 
ENDBRANCH  12  13
ENDBRANCH   4  12
TORSDOF 3
ENDMDL
MODEL 4
REMARK VINA RESULT:      -4.5      2.260      2.763
REMARK  3 active torsions:
REMARK  status: ('A' for Active; 'I' for Inactive)
REMARK    1  A    between atoms: C_1  and  S_3 
REMARK    2  A    between atoms: C_2  and  C_4 
REMARK       I    between atoms: C_2  and  N_11 
REMARK    3  A    between atoms: S_3  and  C_12 
ROOT
HETATM    1  C   UNL     1      63.399   8.981   5.375  1.00  0.00     0.031 A 
HETATM    2  C   UNL     1      64.760   8.805   5.090  1.00  0.00     0.018 A 
HETATM    3  C   UNL     1      62.667   7.917   5.910  1.00  0.00     0.018 A 
HETATM    4  C   UNL     1      64.661   6.520   5.903  1.00  0.00     0.009 A 
HETATM    5  C   UNL     1      65.384   7.578   5.340  1.00  0.00     0.020 A 
HETATM    6  C   UNL     1      63.297   6.692   6.166  1.00  0.00     0.020 A 
ENDROOT
BRANCH   1   7
HETATM    7  C   UNL     1      62.794  10.317   5.132  1.00  0.00     0.249 C 
HETATM    8  O   UNL     1      61.926  10.475   4.281  1.00  0.00    -0.268 OA
HETATM    9  N   UNL     1      63.211  11.362   5.906  1.00  0.00    -0.366 N 
HETATM   10  H   UNL     1      63.907  11.223   6.587  1.00  0.00     0.159 HD
HETATM   11  H   UNL     1      62.813  12.255   5.784  1.00  0.00     0.159 HD
ENDBRANCH   1   7
BRANCH   4  12
HETATM   12  S   UNL     1      65.408   4.934   6.216  1.00  0.00    -0.016 SA
BRANCH  12  13
HETATM   13  C   UNL     1      66.491   5.303   7.609  1.00  0.00     0.448 C 
HETATM   14  F   UNL     1      66.774   4.230   8.381  1.00  0.00    -0.160 F 
HETATM   15  F   UNL     1      65.927   6.237   8.413  1.00  0.00    -0.160 F 
HETATM   16  F   UNL     1      67.673   5.810   7.180  1.00  0.00    -0.160 F 
ENDBRANCH  12  13
ENDBRANCH   4  12
TORSDOF 3
ENDMDL
MODEL 5
REMARK VINA RESULT:      -4.5      4.743      5.809
REMARK  3 active torsions:
REMARK  status: ('A' for Active; 'I' for Inactive)
REMARK    1  A    between atoms: C_1  and  S_3 
REMARK    2  A    between atoms: C_2  and  C_4 
REMARK       I    between atoms: C_2  and  N_11 
REMARK    3  A    between atoms: S_3  and  C_12 
ROOT
HETATM    1  C   UNL     1      65.416   6.838   6.946  1.00  0.00     0.031 A 
HETATM    2  C   UNL     1      65.978   7.809   6.106  1.00  0.00     0.018 A 
HETATM    3  C   UNL     1      64.154   6.316   6.642  1.00  0.00     0.018 A 
HETATM    4  C   UNL     1      64.039   7.711   4.650  1.00  0.00     0.009 A 
HETATM    5  C   UNL     1      65.288   8.253   4.973  1.00  0.00     0.020 A 
HETATM    6  C   UNL     1      63.469   6.758   5.503  1.00  0.00     0.020 A 
ENDROOT
BRANCH   1   7
HETATM    7  C   UNL     1      66.208   6.368   8.112  1.00  0.00     0.249 C 
HETATM    8  O   UNL     1      65.957   5.300   8.661  1.00  0.00    -0.268 OA
HETATM    9  N   UNL     1      67.245   7.145   8.541  1.00  0.00    -0.366 N 
HETATM   10  H   UNL     1      67.438   8.000   8.093  1.00  0.00     0.159 HD
HETATM   11  H   UNL     1      67.802   6.851   9.298  1.00  0.00     0.159 HD
ENDBRANCH   1   7
BRANCH   4  12
HETATM   12  S   UNL     1      63.114   8.263   3.231  1.00  0.00    -0.016 SA
BRANCH  12  13
HETATM   13  C   UNL     1      62.177   9.642   3.914  1.00  0.00     0.448 C 
HETATM   14  F   UNL     1      62.519   9.961   5.183  1.00  0.00    -0.160 F 
HETATM   15  F   UNL     1      60.851   9.360   3.916  1.00  0.00    -0.160 F 
HETATM   16  F   UNL     1      62.343  10.758   3.163  1.00  0.00    -0.160 F 
ENDBRANCH  12  13
ENDBRANCH   4  12
TORSDOF 3
ENDMDL
MODEL 6
REMARK VINA RESULT:      -4.5      1.540      1.995
REMARK  3 active torsions:
REMARK  status: ('A' for Active; 'I' for Inactive)
REMARK    1  A    between atoms: C_1  and  S_3 
REMARK    2  A    between atoms: C_2  and  C_4 
REMARK       I    between atoms: C_2  and  N_11 
REMARK    3  A    between atoms: S_3  and  C_12 
ROOT
HETATM    1  C   UNL     1      63.298   9.196   4.610  1.00  0.00     0.031 A 
HETATM    2  C   UNL     1      63.011   8.594   3.378  1.00  0.00     0.018 A 
HETATM    3  C   UNL     1      64.140   8.541   5.514  1.00  0.00     0.018 A 
HETATM    4  C   UNL     1      64.429   6.706   3.939  1.00  0.00     0.009 A 
HETATM    5  C   UNL     1      63.562   7.351   3.049  1.00  0.00     0.020 A 
HETATM    6  C   UNL     1      64.696   7.299   5.179  1.00  0.00     0.020 A 
ENDROOT
BRANCH   1   7
HETATM    7  C   UNL     1      62.723  10.538   4.893  1.00  0.00     0.249 C 
HETATM    8  O   UNL     1      61.768  10.966   4.254  1.00  0.00    -0.268 OA
HETATM    9  N   UNL     1      63.270  11.271   5.906  1.00  0.00    -0.366 N 
HETATM   10  H   UNL     1      64.036  10.917   6.412  1.00  0.00     0.159 HD
HETATM   11  H   UNL     1      62.898  12.155   6.131  1.00  0.00     0.159 HD
ENDBRANCH   1   7
BRANCH   4  12
HETATM   12  S   UNL     1      65.134   5.112   3.574  1.00  0.00    -0.016 SA
BRANCH  12  13
HETATM   13  C   UNL     1      66.897   5.487   3.538  1.00  0.00     0.448 C 
HETATM   14  F   UNL     1      67.559   4.907   2.512  1.00  0.00    -0.160 F 
HETATM   15  F   UNL     1      67.493   5.074   4.683  1.00  0.00    -0.160 F 
HETATM   16  F   UNL     1      67.104   6.823   3.442  1.00  0.00    -0.160 F 
ENDBRANCH  12  13
ENDBRANCH   4  12
TORSDOF 3
ENDMDL
MODEL 7
REMARK VINA RESULT:      -4.4      4.789      5.661
REMARK  3 active torsions:
REMARK  status: ('A' for Active; 'I' for Inactive)
REMARK    1  A    between atoms: C_1  and  S_3 
REMARK    2  A    between atoms: C_2  and  C_4 
REMARK       I    between atoms: C_2  and  N_11 
REMARK    3  A    between atoms: S_3  and  C_12 
ROOT
HETATM    1  C   UNL     1      64.034   8.323   4.696  1.00  0.00     0.031 A 
HETATM    2  C   UNL     1      64.044   7.325   3.713  1.00  0.00     0.018 A 
HETATM    3  C   UNL     1      63.202   9.436   4.536  1.00  0.00     0.018 A 
HETATM    4  C   UNL     1      62.375   8.533   2.431  1.00  0.00     0.009 A 
HETATM    5  C   UNL     1      63.230   7.435   2.581  1.00  0.00     0.020 A 
HETATM    6  C   UNL     1      62.383   9.540   3.404  1.00  0.00     0.020 A 
ENDROOT
BRANCH   1   7
HETATM    7  C   UNL     1      64.885   8.137   5.901  1.00  0.00     0.249 C 
HETATM    8  O   UNL     1      65.845   8.867   6.118  1.00  0.00    -0.268 OA
HETATM    9  N   UNL     1      64.549   7.146   6.779  1.00  0.00    -0.366 N 
HETATM   10  H   UNL     1      63.775   6.567   6.595  1.00  0.00     0.159 HD
HETATM   11  H   UNL     1      65.081   7.012   7.597  1.00  0.00     0.159 HD
ENDBRANCH   1   7
BRANCH   4  12
HETATM   12  S   UNL     1      61.338   8.727   0.996  1.00  0.00    -0.016 SA
BRANCH  12  13
HETATM   13  C   UNL     1      59.868   7.800   1.473  1.00  0.00     0.448 C 
HETATM   14  F   UNL     1      59.586   7.864   2.794  1.00  0.00    -0.160 F 
HETATM   15  F   UNL     1      60.011   6.490   1.157  1.00  0.00    -0.160 F 
HETATM   16  F   UNL     1      58.776   8.252   0.809  1.00  0.00    -0.160 F 
ENDBRANCH  12  13
ENDBRANCH   4  12
TORSDOF 3
ENDMDL
MODEL 8
REMARK VINA RESULT:      -4.3      2.604      2.848
REMARK  3 active torsions:
REMARK  status: ('A' for Active; 'I' for Inactive)
REMARK    1  A    between atoms: C_1  and  S_3 
REMARK    2  A    between atoms: C_2  and  C_4 
REMARK       I    between atoms: C_2  and  N_11 
REMARK    3  A    between atoms: S_3  and  C_12 
ROOT
HETATM    1  C   UNL     1      63.365   9.483   4.637  1.00  0.00     0.031 A 
HETATM    2  C   UNL     1      62.658   8.867   3.596  1.00  0.00     0.018 A 
HETATM    3  C   UNL     1      64.502   8.857   5.158  1.00  0.00     0.018 A 
HETATM    4  C   UNL     1      64.236   7.024   3.578  1.00  0.00     0.009 A 
HETATM    5  C   UNL     1      63.082   7.638   3.079  1.00  0.00     0.020 A 
HETATM    6  C   UNL     1      64.929   7.630   4.633  1.00  0.00     0.020 A 
ENDROOT
BRANCH   1   7
HETATM    7  C   UNL     1      62.899  10.808   5.122  1.00  0.00     0.249 C 
HETATM    8  O   UNL     1      61.994  11.409   4.553  1.00  0.00    -0.268 OA
HETATM    9  N   UNL     1      63.487  11.328   6.239  1.00  0.00    -0.366 N 
HETATM   10  H   UNL     1      64.211  10.836   6.689  1.00  0.00     0.159 HD
HETATM   11  H   UNL     1      63.185  12.195   6.597  1.00  0.00     0.159 HD
ENDBRANCH   1   7
BRANCH   4  12
HETATM   12  S   UNL     1      64.801   5.449   2.966  1.00  0.00    -0.016 SA
BRANCH  12  13
HETATM   13  C   UNL     1      64.030   4.304   4.124  1.00  0.00     0.448 C 
HETATM   14  F   UNL     1      63.281   3.348   3.530  1.00  0.00    -0.160 F 
HETATM   15  F   UNL     1      63.220   4.971   4.982  1.00  0.00    -0.160 F 
HETATM   16  F   UNL     1      64.966   3.671   4.873  1.00  0.00    -0.160 F 
ENDBRANCH  12  13
ENDBRANCH   4  12
TORSDOF 3
ENDMDL
MODEL 9
REMARK VINA RESULT:      -4.0      4.575      5.585
REMARK  3 active torsions:
REMARK  status: ('A' for Active; 'I' for Inactive)
REMARK    1  A    between atoms: C_1  and  S_3 
REMARK    2  A    between atoms: C_2  and  C_4 
REMARK       I    between atoms: C_2  and  N_11 
REMARK    3  A    between atoms: S_3  and  C_12 
ROOT
HETATM    1  C   UNL     1      64.288   6.679   5.674  1.00  0.00     0.031 A 
HETATM    2  C   UNL     1      62.934   6.501   5.361  1.00  0.00     0.018 A 
HETATM    3  C   UNL     1      64.900   7.907   5.401  1.00  0.00     0.018 A 
HETATM    4  C   UNL     1      62.798   8.779   4.536  1.00  0.00     0.009 A 
HETATM    5  C   UNL     1      62.196   7.540   4.783  1.00  0.00     0.020 A 
HETATM    6  C   UNL     1      64.156   8.948   4.828  1.00  0.00     0.020 A 
ENDROOT
BRANCH   1   7
HETATM    7  C   UNL     1      65.017   5.560   6.327  1.00  0.00     0.249 C 
HETATM    8  O   UNL     1      66.232   5.597   6.480  1.00  0.00    -0.268 OA
HETATM    9  N   UNL     1      64.289   4.497   6.781  1.00  0.00    -0.366 N 
HETATM   10  H   UNL     1      63.313   4.478   6.653  1.00  0.00     0.159 HD
HETATM   11  H   UNL     1      64.740   3.750   7.236  1.00  0.00     0.159 HD
ENDBRANCH   1   7
BRANCH   4  12
HETATM   12  S   UNL     1      61.904  10.122   3.780  1.00  0.00    -0.016 SA
BRANCH  12  13
HETATM   13  C   UNL     1      61.973   9.677   2.035  1.00  0.00     0.448 C 
HETATM   14  F   UNL     1      62.258  10.715   1.217  1.00  0.00    -0.160 F 
HETATM   15  F   UNL     1      60.786   9.162   1.630  1.00  0.00    -0.160 F 
HETATM   16  F   UNL     1      62.913   8.725   1.816  1.00  0.00    -0.160 F 
ENDBRANCH  12  13
ENDBRANCH   4  12
TORSDOF 3
ENDMDL
