MODEL 1
REMARK VINA RESULT:      -5.0      0.000      0.000
REMARK  2 active torsions:
REMARK  status: ('A' for Active; 'I' for Inactive)
REMARK    1  A    between atoms: S_1  and  C_2 
REMARK    2  A    between atoms: S_1  and  N_3 
ROOT
HETATM    1  S   UNL     1      63.768   8.674   5.334  1.00  0.00     0.250 S 
HETATM    2  O   UNL     1      62.734   8.179   6.221  1.00  0.00    -0.205 OA
HETATM    3  O   UNL     1      64.491   9.885   5.645  1.00  0.00    -0.205 OA
ENDROOT
BRANCH   1   4
HETATM    4  C   UNL     1      62.940   9.043   3.802  1.00  0.00     0.115 A 
HETATM    5  S   UNL     1      62.122  10.541   3.698  1.00  0.00    -0.089 SA
HETATM    6  C   UNL     1      61.745  10.292   2.045  1.00  0.00     0.051 A 
HETATM    7  C   UNL     1      62.179   9.065   1.595  1.00  0.00     0.009 A 
HETATM    8  C   UNL     1      62.855   8.337   2.615  1.00  0.00     0.033 A 
ENDBRANCH   1   4
BRANCH   1   9
HETATM    9  N   UNL     1      64.906   7.432   5.105  1.00  0.00    -0.202 NA
HETATM   10  C   UNL     1      66.340   7.833   4.983  1.00  0.00     0.134 C 
HETATM   11  C   UNL     1      67.010   8.035   6.348  1.00  0.00     0.183 C 
HETATM   12  O   UNL     1      66.859   6.880   7.185  1.00  0.00    -0.389 OA
HETATM   13  C   UNL     1      65.470   6.595   7.400  1.00  0.00     0.183 C 
HETATM   14  C   UNL     1      64.766   6.292   6.072  1.00  0.00     0.134 C 
ENDBRANCH   1   9
TORSDOF 2
ENDMDL
MODEL 2
REMARK VINA RESULT:      -4.9      1.693      2.424
REMARK  2 active torsions:
REMARK  status: ('A' for Active; 'I' for Inactive)
REMARK    1  A    between atoms: S_1  and  C_2 
REMARK    2  A    between atoms: S_1  and  N_3 
ROOT
HETATM    1  S   UNL     1      63.430   7.635   5.784  1.00  0.00     0.250 S 
HETATM    2  O   UNL     1      63.340   6.572   4.804  1.00  0.00    -0.205 OA
HETATM    3  O   UNL     1      62.610   7.613   6.974  1.00  0.00    -0.205 OA
ENDROOT
BRANCH   1   4
HETATM    4  C   UNL     1      62.919   9.111   4.931  1.00  0.00     0.115 A 
HETATM    5  S   UNL     1      62.366   8.932   3.323  1.00  0.00    -0.089 SA
HETATM    6  C   UNL     1      61.936  10.588   3.220  1.00  0.00     0.051 A 
HETATM    7  C   UNL     1      62.263  11.279   4.365  1.00  0.00     0.009 A 
HETATM    8  C   UNL     1      62.846  10.429   5.348  1.00  0.00     0.033 A 
ENDBRANCH   1   4
BRANCH   1   9
HETATM    9  N   UNL     1      65.052   7.767   6.273  1.00  0.00    -0.202 NA
HETATM   10  C   UNL     1      65.590   6.690   7.157  1.00  0.00     0.134 C 
HETATM   11  C   UNL     1      66.052   5.459   6.366  1.00  0.00     0.183 C 
HETATM   12  O   UNL     1      66.992   5.813   5.342  1.00  0.00    -0.389 OA
HETATM   13  C   UNL     1      66.405   6.747   4.425  1.00  0.00     0.183 C 
HETATM   14  C   UNL     1      66.007   8.040   5.147  1.00  0.00     0.134 C 
ENDBRANCH   1   9
TORSDOF 2
ENDMDL
MODEL 3
REMARK VINA RESULT:      -4.8      1.558      1.826
REMARK  2 active torsions:
REMARK  status: ('A' for Active; 'I' for Inactive)
REMARK    1  A    between atoms: S_1  and  C_2 
REMARK    2  A    between atoms: S_1  and  N_3 
ROOT
HETATM    1  S   UNL     1      64.662   8.060   5.826  1.00  0.00     0.250 S 
HETATM    2  O   UNL     1      63.821   7.455   6.839  1.00  0.00    -0.205 OA
HETATM    3  O   UNL     1      65.712   8.982   6.192  1.00  0.00    -0.205 OA
ENDROOT
BRANCH   1   4
HETATM    4  C   UNL     1      63.562   9.032   4.818  1.00  0.00     0.115 A 
HETATM    5  S   UNL     1      63.028   8.336   3.350  1.00  0.00    -0.089 SA
HETATM    6  C   UNL     1      61.979   9.655   3.035  1.00  0.00     0.051 A 
HETATM    7  C   UNL     1      62.076  10.635   3.996  1.00  0.00     0.009 A 
HETATM    8  C   UNL     1      63.004  10.283   5.018  1.00  0.00     0.033 A 
ENDBRANCH   1   4
BRANCH   1   9
HETATM    9  N   UNL     1      65.360   6.814   4.904  1.00  0.00    -0.202 NA
HETATM   10  C   UNL     1      66.745   7.038   4.390  1.00  0.00     0.134 C 
HETATM   11  C   UNL     1      67.818   6.707   5.435  1.00  0.00     0.183 C 
HETATM   12  O   UNL     1      67.660   5.378   5.950  1.00  0.00    -0.389 OA
HETATM   13  C   UNL     1      66.371   5.228   6.562  1.00  0.00     0.183 C 
HETATM   14  C   UNL     1      65.254   5.457   5.537  1.00  0.00     0.134 C 
ENDBRANCH   1   9
TORSDOF 2
ENDMDL
MODEL 4
REMARK VINA RESULT:      -4.7      2.647      3.516
REMARK  2 active torsions:
REMARK  status: ('A' for Active; 'I' for Inactive)
REMARK    1  A    between atoms: S_1  and  C_2 
REMARK    2  A    between atoms: S_1  and  N_3 
ROOT
HETATM    1  S   UNL     1      66.458   7.563   6.397  1.00  0.00     0.250 S 
HETATM    2  O   UNL     1      66.723   8.889   6.916  1.00  0.00    -0.205 OA
HETATM    3  O   UNL     1      67.494   6.811   5.726  1.00  0.00    -0.205 OA
ENDROOT
BRANCH   1   4
HETATM    4  C   UNL     1      65.207   7.785   5.150  1.00  0.00     0.115 A 
HETATM    5  S   UNL     1      65.111   6.600   3.921  1.00  0.00    -0.089 SA
HETATM    6  C   UNL     1      63.710   7.323   3.247  1.00  0.00     0.051 A 
HETATM    7  C   UNL     1      63.356   8.478   3.906  1.00  0.00     0.009 A 
HETATM    8  C   UNL     1      64.230   8.754   4.996  1.00  0.00     0.033 A 
ENDBRANCH   1   4
BRANCH   1   9
HETATM    9  N   UNL     1      65.861   6.607   7.669  1.00  0.00    -0.202 NA
HETATM   10  C   UNL     1      65.605   5.163   7.377  1.00  0.00     0.134 C 
HETATM   11  C   UNL     1      66.876   4.310   7.489  1.00  0.00     0.183 C 
HETATM   12  O   UNL     1      67.516   4.482   8.761  1.00  0.00    -0.389 OA
HETATM   13  C   UNL     1      67.875   5.857   8.959  1.00  0.00     0.183 C 
HETATM   14  C   UNL     1      66.629   6.750   8.951  1.00  0.00     0.134 C 
ENDBRANCH   1   9
TORSDOF 2
ENDMDL
MODEL 5
REMARK VINA RESULT:      -4.5      2.625      5.520
REMARK  2 active torsions:
REMARK  status: ('A' for Active; 'I' for Inactive)
REMARK    1  A    between atoms: S_1  and  C_2 
REMARK    2  A    between atoms: S_1  and  N_3 
ROOT
HETATM    1  S   UNL     1      66.308   8.032   6.158  1.00  0.00     0.250 S 
HETATM    2  O   UNL     1      66.740   8.049   4.775  1.00  0.00    -0.205 OA
HETATM    3  O   UNL     1      66.680   9.097   7.061  1.00  0.00    -0.205 OA
ENDROOT
BRANCH   1   4
HETATM    4  C   UNL     1      67.053   6.580   6.868  1.00  0.00     0.115 A 
HETATM    5  S   UNL     1      67.040   6.450   8.573  1.00  0.00    -0.089 SA
HETATM    6  C   UNL     1      67.716   4.876   8.522  1.00  0.00     0.051 A 
HETATM    7  C   UNL     1      68.003   4.478   7.236  1.00  0.00     0.009 A 
HETATM    8  C   UNL     1      67.636   5.470   6.281  1.00  0.00     0.033 A 
ENDBRANCH   1   4
BRANCH   1   9
HETATM    9  N   UNL     1      64.614   7.897   6.181  1.00  0.00    -0.202 NA
HETATM   10  C   UNL     1      63.853   8.661   5.146  1.00  0.00     0.134 C 
HETATM   11  C   UNL     1      63.777   7.916   3.807  1.00  0.00     0.183 C 
HETATM   12  O   UNL     1      63.252   6.591   3.970  1.00  0.00    -0.389 OA
HETATM   13  C   UNL     1      64.078   5.832   4.864  1.00  0.00     0.183 C 
HETATM   14  C   UNL     1      64.116   6.482   6.252  1.00  0.00     0.134 C 
ENDBRANCH   1   9
TORSDOF 2
ENDMDL
MODEL 6
REMARK VINA RESULT:      -4.4      1.975      5.254
REMARK  2 active torsions:
REMARK  status: ('A' for Active; 'I' for Inactive)
REMARK    1  A    between atoms: S_1  and  C_2 
REMARK    2  A    between atoms: S_1  and  N_3 
ROOT
HETATM    1  S   UNL     1      63.942   8.162   5.588  1.00  0.00     0.250 S 
HETATM    2  O   UNL     1      64.022   9.605   5.498  1.00  0.00    -0.205 OA
HETATM    3  O   UNL     1      63.218   7.528   6.666  1.00  0.00    -0.205 OA
ENDROOT
BRANCH   1   4
HETATM    4  C   UNL     1      65.619   7.607   5.807  1.00  0.00     0.115 A 
HETATM    5  S   UNL     1      65.970   6.723   7.228  1.00  0.00    -0.089 SA
HETATM    6  C   UNL     1      67.577   6.417   6.715  1.00  0.00     0.051 A 
HETATM    7  C   UNL     1      67.862   7.027   5.515  1.00  0.00     0.009 A 
HETATM    8  C   UNL     1      66.736   7.728   4.997  1.00  0.00     0.033 A 
ENDBRANCH   1   4
BRANCH   1   9
HETATM    9  N   UNL     1      63.313   7.575   4.122  1.00  0.00    -0.202 NA
HETATM   10  C   UNL     1      62.307   6.472   4.202  1.00  0.00     0.134 C 
HETATM   11  C   UNL     1      60.889   6.993   4.467  1.00  0.00     0.183 C 
HETATM   12  O   UNL     1      60.503   7.984   3.504  1.00  0.00    -0.389 OA
HETATM   13  C   UNL     1      61.407   9.097   3.542  1.00  0.00     0.183 C 
HETATM   14  C   UNL     1      62.832   8.650   3.192  1.00  0.00     0.134 C 
ENDBRANCH   1   9
TORSDOF 2
ENDMDL
MODEL 7
REMARK VINA RESULT:      -4.3      1.846      2.413
REMARK  2 active torsions:
REMARK  status: ('A' for Active; 'I' for Inactive)
REMARK    1  A    between atoms: S_1  and  C_2 
REMARK    2  A    between atoms: S_1  and  N_3 
ROOT
HETATM    1  S   UNL     1      64.982   7.832   5.052  1.00  0.00     0.250 S 
HETATM    2  O   UNL     1      65.874   8.867   5.532  1.00  0.00    -0.205 OA
HETATM    3  O   UNL     1      65.416   6.891   4.045  1.00  0.00    -0.205 OA
ENDROOT
BRANCH   1   4
HETATM    4  C   UNL     1      63.627   8.694   4.284  1.00  0.00     0.115 A 
HETATM    5  S   UNL     1      63.023  10.076   5.090  1.00  0.00    -0.089 SA
HETATM    6  C   UNL     1      61.949  10.435   3.803  1.00  0.00     0.051 A 
HETATM    7  C   UNL     1      62.003   9.489   2.805  1.00  0.00     0.009 A 
HETATM    8  C   UNL     1      62.961   8.474   3.090  1.00  0.00     0.033 A 
ENDBRANCH   1   4
BRANCH   1   9
HETATM    9  N   UNL     1      64.432   6.944   6.392  1.00  0.00    -0.202 NA
HETATM   10  C   UNL     1      63.659   5.696   6.115  1.00  0.00     0.134 C 
HETATM   11  C   UNL     1      64.570   4.492   5.840  1.00  0.00     0.183 C 
HETATM   12  O   UNL     1      65.518   4.296   6.898  1.00  0.00    -0.389 OA
HETATM   13  C   UNL     1      66.342   5.461   7.055  1.00  0.00     0.183 C 
HETATM   14  C   UNL     1      65.490   6.681   7.424  1.00  0.00     0.134 C 
ENDBRANCH   1   9
TORSDOF 2
ENDMDL
MODEL 8
REMARK VINA RESULT:      -4.3      2.549      5.783
REMARK  2 active torsions:
REMARK  status: ('A' for Active; 'I' for Inactive)
REMARK    1  A    between atoms: S_1  and  C_2 
REMARK    2  A    between atoms: S_1  and  N_3 
ROOT
HETATM    1  S   UNL     1      64.479   6.496   6.382  1.00  0.00     0.250 S 
HETATM    2  O   UNL     1      63.613   7.383   7.131  1.00  0.00    -0.205 OA
HETATM    3  O   UNL     1      63.995   5.222   5.901  1.00  0.00    -0.205 OA
ENDROOT
BRANCH   1   4
HETATM    4  C   UNL     1      65.798   6.067   7.498  1.00  0.00     0.115 A 
HETATM    5  S   UNL     1      66.282   4.428   7.541  1.00  0.00    -0.089 SA
HETATM    6  C   UNL     1      67.574   4.773   8.614  1.00  0.00     0.051 A 
HETATM    7  C   UNL     1      67.600   6.099   8.982  1.00  0.00     0.009 A 
HETATM    8  C   UNL     1      66.564   6.844   8.350  1.00  0.00     0.033 A 
ENDBRANCH   1   4
BRANCH   1   9
HETATM    9  N   UNL     1      65.090   7.357   5.049  1.00  0.00    -0.202 NA
HETATM   10  C   UNL     1      65.108   6.653   3.731  1.00  0.00     0.134 C 
HETATM   11  C   UNL     1      63.756   6.727   3.009  1.00  0.00     0.183 C 
HETATM   12  O   UNL     1      63.305   8.082   2.873  1.00  0.00    -0.389 OA
HETATM   13  C   UNL     1      63.164   8.695   4.163  1.00  0.00     0.183 C 
HETATM   14  C   UNL     1      64.511   8.733   4.895  1.00  0.00     0.134 C 
ENDBRANCH   1   9
TORSDOF 2
ENDMDL
MODEL 9
REMARK VINA RESULT:      -4.3      2.514      2.706
REMARK  2 active torsions:
REMARK  status: ('A' for Active; 'I' for Inactive)
REMARK    1  A    between atoms: S_1  and  C_2 
REMARK    2  A    between atoms: S_1  and  N_3 
ROOT
HETATM    1  S   UNL     1      64.930   7.524   6.026  1.00  0.00     0.250 S 
HETATM    2  O   UNL     1      63.967   7.333   7.091  1.00  0.00    -0.205 OA
HETATM    3  O   UNL     1      65.387   8.849   5.673  1.00  0.00    -0.205 OA
ENDROOT
BRANCH   1   4
HETATM    4  C   UNL     1      64.127   6.934   4.551  1.00  0.00     0.115 A 
HETATM    5  S   UNL     1      62.448   6.626   4.645  1.00  0.00    -0.089 SA
HETATM    6  C   UNL     1      62.354   6.280   2.969  1.00  0.00     0.051 A 
HETATM    7  C   UNL     1      63.586   6.337   2.359  1.00  0.00     0.009 A 
HETATM    8  C   UNL     1      64.614   6.699   3.276  1.00  0.00     0.033 A 
ENDBRANCH   1   4
BRANCH   1   9
HETATM    9  N   UNL     1      66.297   6.577   6.373  1.00  0.00    -0.202 NA
HETATM   10  C   UNL     1      66.995   6.833   7.670  1.00  0.00     0.134 C 
HETATM   11  C   UNL     1      66.334   6.099   8.844  1.00  0.00     0.183 C 
HETATM   12  O   UNL     1      66.210   4.694   8.585  1.00  0.00    -0.389 OA
HETATM   13  C   UNL     1      65.420   4.469   7.409  1.00  0.00     0.183 C 
HETATM   14  C   UNL     1      66.083   5.104   6.180  1.00  0.00     0.134 C 
ENDBRANCH   1   9
TORSDOF 2
ENDMDL
