MODEL 1
REMARK VINA RESULT:      -5.2      0.000      0.000
REMARK  2 active torsions:
REMARK  status: ('A' for Active; 'I' for Inactive)
REMARK    1  A    between atoms: C_1  and  C_6 
REMARK    2  A    between atoms: C_6  and  C_7 
ROOT
HETATM    1  C   UNL     1      61.745   8.643   3.221  1.00  0.00    -0.030 A 
HETATM    2  C   UNL     1      62.634   8.103   4.232  1.00  0.00    -0.010 A 
HETATM    3  S   UNL     1      60.422   6.777   4.408  1.00  0.00    -0.101 SA
HETATM    4  C   UNL     1      60.524   7.996   3.226  1.00  0.00     0.059 A 
HETATM    5  C   UNL     1      62.023   7.075   4.958  1.00  0.00     0.015 A 
HETATM    6  C   UNL     1      63.968   8.450   4.574  1.00  0.00     0.037 A 
HETATM    7  C   UNL     1      62.691   6.402   6.002  1.00  0.00     0.021 A 
HETATM    8  C   UNL     1      64.628   7.783   5.611  1.00  0.00     0.035 A 
HETATM    9  C   UNL     1      63.999   6.772   6.321  1.00  0.00     0.025 A 
HETATM   10 CL   UNL     1      66.242   8.228   6.012  1.00  0.00    -0.084 Cl
ENDROOT
BRANCH   1  11
HETATM   11  C   UNL     1      62.088   9.763   2.276  1.00  0.00     0.153 C 
BRANCH  11  12
HETATM   12  C   UNL     1      61.871  11.126   2.887  1.00  0.00     0.176 C 
HETATM   13  O   UNL     1      61.715  11.415   4.060  1.00  0.00    -0.648 OA
HETATM   14  O   UNL     1      61.869  12.101   1.950  1.00  0.00    -0.648 OA
ENDBRANCH  11  12
ENDBRANCH   1  11
TORSDOF 2
ENDMDL
MODEL 2
REMARK VINA RESULT:      -5.2      3.169      4.670
REMARK  2 active torsions:
REMARK  status: ('A' for Active; 'I' for Inactive)
REMARK    1  A    between atoms: C_1  and  C_6 
REMARK    2  A    between atoms: C_6  and  C_7 
ROOT
HETATM    1  C   UNL     1      63.751   7.052   4.065  1.00  0.00    -0.030 A 
HETATM    2  C   UNL     1      63.110   7.901   3.079  1.00  0.00    -0.010 A 
HETATM    3  S   UNL     1      63.379   5.573   1.989  1.00  0.00    -0.101 SA
HETATM    4  C   UNL     1      63.940   5.771   3.582  1.00  0.00     0.059 A 
HETATM    5  C   UNL     1      62.859   7.208   1.890  1.00  0.00     0.015 A 
HETATM    6  C   UNL     1      62.721   9.265   3.142  1.00  0.00     0.037 A 
HETATM    7  C   UNL     1      62.250   7.830   0.780  1.00  0.00     0.021 A 
HETATM    8  C   UNL     1      62.119   9.881   2.041  1.00  0.00     0.035 A 
HETATM    9  C   UNL     1      61.886   9.174   0.871  1.00  0.00     0.025 A 
HETATM   10 CL   UNL     1      61.663  11.538   2.141  1.00  0.00    -0.084 Cl
ENDROOT
BRANCH   1  11
HETATM   11  C   UNL     1      64.164   7.489   5.445  1.00  0.00     0.153 C 
BRANCH  11  12
HETATM   12  C   UNL     1      65.321   8.459   5.426  1.00  0.00     0.176 C 
HETATM   13  O   UNL     1      66.462   8.271   5.044  1.00  0.00    -0.648 OA
HETATM   14  O   UNL     1      64.966   9.673   5.904  1.00  0.00    -0.648 OA
ENDBRANCH  11  12
ENDBRANCH   1  11
TORSDOF 2
ENDMDL
MODEL 3
REMARK VINA RESULT:      -5.1      3.394      4.908
REMARK  2 active torsions:
REMARK  status: ('A' for Active; 'I' for Inactive)
REMARK    1  A    between atoms: C_1  and  C_6 
REMARK    2  A    between atoms: C_6  and  C_7 
ROOT
HETATM    1  C   UNL     1      63.218   8.708   4.692  1.00  0.00    -0.030 A 
HETATM    2  C   UNL     1      62.915   8.447   3.298  1.00  0.00    -0.010 A 
HETATM    3  S   UNL     1      62.058  10.832   3.808  1.00  0.00    -0.101 SA
HETATM    4  C   UNL     1      62.802   9.970   5.071  1.00  0.00     0.059 A 
HETATM    5  C   UNL     1      62.270   9.535   2.700  1.00  0.00     0.015 A 
HETATM    6  C   UNL     1      63.165   7.305   2.493  1.00  0.00     0.037 A 
HETATM    7  C   UNL     1      61.867   9.511   1.348  1.00  0.00     0.021 A 
HETATM    8  C   UNL     1      62.765   7.282   1.153  1.00  0.00     0.035 A 
HETATM    9  C   UNL     1      62.120   8.370   0.585  1.00  0.00     0.025 A 
HETATM   10 CL   UNL     1      63.073   5.881   0.200  1.00  0.00    -0.084 Cl
ENDROOT
BRANCH   1  11
HETATM   11  C   UNL     1      63.900   7.743   5.624  1.00  0.00     0.153 C 
BRANCH  11  12
HETATM   12  C   UNL     1      65.377   8.019   5.769  1.00  0.00     0.176 C 
HETATM   13  O   UNL     1      66.147   8.481   4.945  1.00  0.00    -0.648 OA
HETATM   14  O   UNL     1      65.831   7.690   7.000  1.00  0.00    -0.648 OA
ENDBRANCH  11  12
ENDBRANCH   1  11
TORSDOF 2
ENDMDL
MODEL 4
REMARK VINA RESULT:      -4.8      1.567      2.087
REMARK  2 active torsions:
REMARK  status: ('A' for Active; 'I' for Inactive)
REMARK    1  A    between atoms: C_1  and  C_6 
REMARK    2  A    between atoms: C_6  and  C_7 
ROOT
HETATM    1  C   UNL     1      62.811   8.184   4.740  1.00  0.00    -0.030 A 
HETATM    2  C   UNL     1      64.062   7.633   5.224  1.00  0.00    -0.010 A 
HETATM    3  S   UNL     1      62.183   6.097   6.115  1.00  0.00    -0.101 SA
HETATM    4  C   UNL     1      61.732   7.429   5.158  1.00  0.00     0.059 A 
HETATM    5  C   UNL     1      63.853   6.487   6.000  1.00  0.00     0.015 A 
HETATM    6  C   UNL     1      65.401   8.067   5.036  1.00  0.00     0.037 A 
HETATM    7  C   UNL     1      64.923   5.781   6.587  1.00  0.00     0.021 A 
HETATM    8  C   UNL     1      66.460   7.367   5.621  1.00  0.00     0.035 A 
HETATM    9  C   UNL     1      66.227   6.237   6.391  1.00  0.00     0.025 A 
HETATM   10 CL   UNL     1      68.074   7.918   5.384  1.00  0.00    -0.084 Cl
ENDROOT
BRANCH   1  11
HETATM   11  C   UNL     1      62.681   9.418   3.887  1.00  0.00     0.153 C 
BRANCH  11  12
HETATM   12  C   UNL     1      62.593  10.684   4.706  1.00  0.00     0.176 C 
HETATM   13  O   UNL     1      62.946  10.868   5.857  1.00  0.00    -0.648 OA
HETATM   14  O   UNL     1      62.048  11.700   4.000  1.00  0.00    -0.648 OA
ENDBRANCH  11  12
ENDBRANCH   1  11
TORSDOF 2
ENDMDL
MODEL 5
REMARK VINA RESULT:      -4.6      3.522      4.986
REMARK  2 active torsions:
REMARK  status: ('A' for Active; 'I' for Inactive)
REMARK    1  A    between atoms: C_1  and  C_6 
REMARK    2  A    between atoms: C_6  and  C_7 
ROOT
HETATM    1  C   UNL     1      65.202   7.137   4.444  1.00  0.00    -0.030 A 
HETATM    2  C   UNL     1      64.116   8.039   4.114  1.00  0.00    -0.010 A 
HETATM    3  S   UNL     1      63.895   6.005   2.534  1.00  0.00    -0.101 SA
HETATM    4  C   UNL     1      65.175   6.004   3.654  1.00  0.00     0.059 A 
HETATM    5  C   UNL     1      63.328   7.536   3.073  1.00  0.00     0.015 A 
HETATM    6  C   UNL     1      63.755   9.297   4.665  1.00  0.00     0.037 A 
HETATM    7  C   UNL     1      62.215   8.242   2.572  1.00  0.00     0.021 A 
HETATM    8  C   UNL     1      62.653   9.998   4.166  1.00  0.00     0.035 A 
HETATM    9  C   UNL     1      61.891   9.481   3.130  1.00  0.00     0.025 A 
HETATM   10 CL   UNL     1      62.240  11.525   4.847  1.00  0.00    -0.084 Cl
ENDROOT
BRANCH   1  11
HETATM   11  C   UNL     1      66.238   7.383   5.509  1.00  0.00     0.153 C 
BRANCH  11  12
HETATM   12  C   UNL     1      65.741   7.042   6.893  1.00  0.00     0.176 C 
HETATM   13  O   UNL     1      64.597   7.047   7.311  1.00  0.00    -0.648 OA
HETATM   14  O   UNL     1      66.754   6.689   7.716  1.00  0.00    -0.648 OA
ENDBRANCH  11  12
ENDBRANCH   1  11
TORSDOF 2
ENDMDL
MODEL 6
REMARK VINA RESULT:      -4.5      2.905      3.948
REMARK  2 active torsions:
REMARK  status: ('A' for Active; 'I' for Inactive)
REMARK    1  A    between atoms: C_1  and  C_6 
REMARK    2  A    between atoms: C_6  and  C_7 
ROOT
HETATM    1  C   UNL     1      64.266   7.224   5.019  1.00  0.00    -0.030 A 
HETATM    2  C   UNL     1      65.370   6.734   5.821  1.00  0.00    -0.010 A 
HETATM    3  S   UNL     1      65.756   5.861   3.419  1.00  0.00    -0.101 SA
HETATM    4  C   UNL     1      64.377   6.815   3.703  1.00  0.00     0.059 A 
HETATM    5  C   UNL     1      66.257   5.964   5.060  1.00  0.00     0.015 A 
HETATM    6  C   UNL     1      65.667   6.912   7.198  1.00  0.00     0.037 A 
HETATM    7  C   UNL     1      67.405   5.373   5.626  1.00  0.00     0.021 A 
HETATM    8  C   UNL     1      66.805   6.324   7.758  1.00  0.00     0.035 A 
HETATM    9  C   UNL     1      67.665   5.560   6.985  1.00  0.00     0.025 A 
HETATM   10 CL   UNL     1      67.138   6.549   9.433  1.00  0.00    -0.084 Cl
ENDROOT
BRANCH   1  11
HETATM   11  C   UNL     1      63.134   8.073   5.532  1.00  0.00     0.153 C 
BRANCH  11  12
HETATM   12  C   UNL     1      63.278   9.527   5.153  1.00  0.00     0.176 C 
HETATM   13  O   UNL     1      62.564  10.196   4.427  1.00  0.00    -0.648 OA
HETATM   14  O   UNL     1      64.358  10.093   5.738  1.00  0.00    -0.648 OA
ENDBRANCH  11  12
ENDBRANCH   1  11
TORSDOF 2
ENDMDL
MODEL 7
REMARK VINA RESULT:      -4.4      2.780      3.123
REMARK  2 active torsions:
REMARK  status: ('A' for Active; 'I' for Inactive)
REMARK    1  A    between atoms: C_1  and  C_6 
REMARK    2  A    between atoms: C_6  and  C_7 
ROOT
HETATM    1  C   UNL     1      62.140   9.284   2.703  1.00  0.00    -0.030 A 
HETATM    2  C   UNL     1      63.135   8.413   3.298  1.00  0.00    -0.010 A 
HETATM    3  S   UNL     1      62.803  10.385   4.936  1.00  0.00    -0.101 SA
HETATM    4  C   UNL     1      61.882  10.378   3.506  1.00  0.00     0.059 A 
HETATM    5  C   UNL     1      63.585   8.910   4.526  1.00  0.00     0.015 A 
HETATM    6  C   UNL     1      63.692   7.190   2.839  1.00  0.00     0.037 A 
HETATM    7  C   UNL     1      64.562   8.238   5.289  1.00  0.00     0.021 A 
HETATM    8  C   UNL     1      64.662   6.526   3.595  1.00  0.00     0.035 A 
HETATM    9  C   UNL     1      65.096   7.042   4.806  1.00  0.00     0.025 A 
HETATM   10 CL   UNL     1      65.326   5.048   3.012  1.00  0.00    -0.084 Cl
ENDROOT
BRANCH   1  11
HETATM   11  C   UNL     1      61.461   9.044   1.381  1.00  0.00     0.153 C 
BRANCH  11  12
HETATM   12  C   UNL     1      60.274   8.119   1.495  1.00  0.00     0.176 C 
HETATM   13  O   UNL     1      60.036   7.295   2.360  1.00  0.00    -0.648 OA
HETATM   14  O   UNL     1      59.405   8.290   0.474  1.00  0.00    -0.648 OA
ENDBRANCH  11  12
ENDBRANCH   1  11
TORSDOF 2
ENDMDL
MODEL 8
REMARK VINA RESULT:      -4.4      3.415      4.745
REMARK  2 active torsions:
REMARK  status: ('A' for Active; 'I' for Inactive)
REMARK    1  A    between atoms: C_1  and  C_6 
REMARK    2  A    between atoms: C_6  and  C_7 
ROOT
HETATM    1  C   UNL     1      63.260   7.063   2.581  1.00  0.00    -0.030 A 
HETATM    2  C   UNL     1      62.845   8.418   2.889  1.00  0.00    -0.010 A 
HETATM    3  S   UNL     1      62.154   7.972   0.439  1.00  0.00    -0.101 SA
HETATM    4  C   UNL     1      62.932   6.718   1.284  1.00  0.00     0.059 A 
HETATM    5  C   UNL     1      62.230   9.030   1.792  1.00  0.00     0.015 A 
HETATM    6  C   UNL     1      62.967   9.176   4.084  1.00  0.00     0.037 A 
HETATM    7  C   UNL     1      61.749  10.355   1.850  1.00  0.00     0.021 A 
HETATM    8  C   UNL     1      62.492  10.490   4.140  1.00  0.00     0.035 A 
HETATM    9  C   UNL     1      61.892  11.077   3.036  1.00  0.00     0.025 A 
HETATM   10 CL   UNL     1      62.659  11.391   5.597  1.00  0.00    -0.084 Cl
ENDROOT
BRANCH   1  11
HETATM   11  C   UNL     1      63.959   6.134   3.537  1.00  0.00     0.153 C 
BRANCH  11  12
HETATM   12  C   UNL     1      63.016   5.515   4.541  1.00  0.00     0.176 C 
HETATM   13  O   UNL     1      61.822   5.302   4.428  1.00  0.00    -0.648 OA
HETATM   14  O   UNL     1      63.654   5.173   5.683  1.00  0.00    -0.648 OA
ENDBRANCH  11  12
ENDBRANCH   1  11
TORSDOF 2
ENDMDL
MODEL 9
REMARK VINA RESULT:      -4.3      2.864      4.005
REMARK  2 active torsions:
REMARK  status: ('A' for Active; 'I' for Inactive)
REMARK    1  A    between atoms: C_1  and  C_6 
REMARK    2  A    between atoms: C_6  and  C_7 
ROOT
HETATM    1  C   UNL     1      63.094   7.791   3.894  1.00  0.00    -0.030 A 
HETATM    2  C   UNL     1      61.910   7.200   4.488  1.00  0.00    -0.010 A 
HETATM    3  S   UNL     1      61.156   8.304   2.276  1.00  0.00    -0.101 SA
HETATM    4  C   UNL     1      62.801   8.409   2.694  1.00  0.00     0.059 A 
HETATM    5  C   UNL     1      60.776   7.418   3.699  1.00  0.00     0.015 A 
HETATM    6  C   UNL     1      61.744   6.470   5.694  1.00  0.00     0.037 A 
HETATM    7  C   UNL     1      59.503   6.944   4.077  1.00  0.00     0.021 A 
HETATM    8  C   UNL     1      60.481   6.001   6.069  1.00  0.00     0.035 A 
HETATM    9  C   UNL     1      59.370   6.236   5.273  1.00  0.00     0.025 A 
HETATM   10 CL   UNL     1      60.305   5.125   7.541  1.00  0.00    -0.084 Cl
ENDROOT
BRANCH   1  11
HETATM   11  C   UNL     1      64.475   7.746   4.491  1.00  0.00     0.153 C 
BRANCH  11  12
HETATM   12  C   UNL     1      64.756   8.922   5.396  1.00  0.00     0.176 C 
HETATM   13  O   UNL     1      64.104   9.941   5.540  1.00  0.00    -0.648 OA
HETATM   14  O   UNL     1      65.889   8.744   6.112  1.00  0.00    -0.648 OA
ENDBRANCH  11  12
ENDBRANCH   1  11
TORSDOF 2
ENDMDL
