MODEL 1
REMARK VINA RESULT:      -4.9      0.000      0.000
REMARK  3 active torsions:
REMARK  status: ('A' for Active; 'I' for Inactive)
REMARK    1  A    between atoms: S_1  and  C_4 
REMARK    2  A    between atoms: S_1  and  C_5 
REMARK    3  A    between atoms: C_3  and  C_5 
ROOT
HETATM    1  C   UNL     1      62.878   8.599   4.709  1.00  0.00     0.001 A 
HETATM    2  C   UNL     1      62.091  10.680   2.978  1.00  0.00    -0.062 A 
HETATM    3  C   UNL     1      62.589   8.331   3.369  1.00  0.00     0.019 A 
HETATM    4  C   UNL     1      62.759   9.909   5.181  1.00  0.00     0.019 A 
HETATM    5  C   UNL     1      62.200   9.364   2.509  1.00  0.00     0.008 A 
HETATM    6  C   UNL     1      62.376  10.944   4.321  1.00  0.00     0.008 A 
HETATM    7  C   UNL     1      61.662  11.778   2.048  1.00  0.00     0.048 C 
ENDROOT
BRANCH   1   8
HETATM    8  S   UNL     1      63.312   7.305   5.857  1.00  0.00    -0.123 SA
BRANCH   8   9
HETATM    9  C   UNL     1      65.067   7.063   5.442  1.00  0.00     0.157 C 
BRANCH   9  10
HETATM   10  C   UNL     1      65.949   7.676   6.517  1.00  0.00     0.132 C 
HETATM   11  O   UNL     1      66.304   8.857   6.454  1.00  0.00    -0.298 OA
HETATM   12  C   UNL     1      66.318   6.824   7.706  1.00  0.00     0.091 C 
ENDBRANCH   9  10
ENDBRANCH   8   9
ENDBRANCH   1   8
TORSDOF 3
ENDMDL
MODEL 2
REMARK VINA RESULT:      -4.8      1.055      1.838
REMARK  3 active torsions:
REMARK  status: ('A' for Active; 'I' for Inactive)
REMARK    1  A    between atoms: S_1  and  C_4 
REMARK    2  A    between atoms: S_1  and  C_5 
REMARK    3  A    between atoms: C_3  and  C_5 
ROOT
HETATM    1  C   UNL     1      62.767   8.208   3.788  1.00  0.00     0.001 A 
HETATM    2  C   UNL     1      61.997  10.635   2.579  1.00  0.00    -0.062 A 
HETATM    3  C   UNL     1      62.539   9.344   4.568  1.00  0.00     0.019 A 
HETATM    4  C   UNL     1      62.621   8.296   2.401  1.00  0.00     0.019 A 
HETATM    5  C   UNL     1      62.154  10.549   3.969  1.00  0.00     0.008 A 
HETATM    6  C   UNL     1      62.231   9.498   1.801  1.00  0.00     0.008 A 
HETATM    7  C   UNL     1      61.595  11.936   1.947  1.00  0.00     0.048 C 
ENDROOT
BRANCH   1   8
HETATM    8  S   UNL     1      63.323   6.671   4.500  1.00  0.00    -0.123 SA
BRANCH   8   9
HETATM    9  C   UNL     1      64.167   7.279   5.994  1.00  0.00     0.157 C 
BRANCH   9  10
HETATM   10  C   UNL     1      65.501   7.905   5.622  1.00  0.00     0.132 C 
HETATM   11  O   UNL     1      65.905   8.926   6.186  1.00  0.00    -0.298 OA
HETATM   12  C   UNL     1      66.355   7.203   4.597  1.00  0.00     0.091 C 
ENDBRANCH   9  10
ENDBRANCH   8   9
ENDBRANCH   1   8
TORSDOF 3
ENDMDL
MODEL 3
REMARK VINA RESULT:      -4.6      1.245      1.459
REMARK  3 active torsions:
REMARK  status: ('A' for Active; 'I' for Inactive)
REMARK    1  A    between atoms: S_1  and  C_4 
REMARK    2  A    between atoms: S_1  and  C_5 
REMARK    3  A    between atoms: C_3  and  C_5 
ROOT
HETATM    1  C   UNL     1      62.685   8.097   3.695  1.00  0.00     0.001 A 
HETATM    2  C   UNL     1      61.991  10.593   2.585  1.00  0.00    -0.062 A 
HETATM    3  C   UNL     1      62.424   8.213   2.328  1.00  0.00     0.019 A 
HETATM    4  C   UNL     1      62.585   9.232   4.505  1.00  0.00     0.019 A 
HETATM    5  C   UNL     1      62.082   9.453   1.776  1.00  0.00     0.008 A 
HETATM    6  C   UNL     1      62.248  10.473   3.954  1.00  0.00     0.008 A 
HETATM    7  C   UNL     1      61.613  11.915   1.983  1.00  0.00     0.048 C 
ENDROOT
BRANCH   1   8
HETATM    8  S   UNL     1      63.059   6.527   4.454  1.00  0.00    -0.123 SA
BRANCH   8   9
HETATM    9  C   UNL     1      63.261   7.033   6.191  1.00  0.00     0.157 C 
BRANCH   9  10
HETATM   10  C   UNL     1      64.729   6.990   6.581  1.00  0.00     0.132 C 
HETATM   11  O   UNL     1      65.072   6.839   7.757  1.00  0.00    -0.298 OA
HETATM   12  C   UNL     1      65.759   7.059   5.482  1.00  0.00     0.091 C 
ENDBRANCH   9  10
ENDBRANCH   8   9
ENDBRANCH   1   8
TORSDOF 3
ENDMDL
MODEL 4
REMARK VINA RESULT:      -4.0      2.016      2.819
REMARK  3 active torsions:
REMARK  status: ('A' for Active; 'I' for Inactive)
REMARK    1  A    between atoms: S_1  and  C_4 
REMARK    2  A    between atoms: S_1  and  C_5 
REMARK    3  A    between atoms: C_3  and  C_5 
ROOT
HETATM    1  C   UNL     1      64.833   8.129   5.034  1.00  0.00     0.001 A 
HETATM    2  C   UNL     1      62.765   8.362   3.133  1.00  0.00    -0.062 A 
HETATM    3  C   UNL     1      63.962   9.221   5.069  1.00  0.00     0.019 A 
HETATM    4  C   UNL     1      64.672   7.163   4.038  1.00  0.00     0.019 A 
HETATM    5  C   UNL     1      62.934   9.335   4.126  1.00  0.00     0.008 A 
HETATM    6  C   UNL     1      63.642   7.273   3.098  1.00  0.00     0.008 A 
HETATM    7  C   UNL     1      61.666   8.501   2.121  1.00  0.00     0.048 C 
ENDROOT
BRANCH   1   8
HETATM    8  S   UNL     1      66.197   7.976   6.172  1.00  0.00    -0.123 SA
BRANCH   8   9
HETATM    9  C   UNL     1      65.583   6.648   7.256  1.00  0.00     0.157 C 
BRANCH   9  10
HETATM   10  C   UNL     1      66.594   6.359   8.353  1.00  0.00     0.132 C 
HETATM   11  O   UNL     1      66.311   6.532   9.542  1.00  0.00    -0.298 OA
HETATM   12  C   UNL     1      67.929   5.781   7.956  1.00  0.00     0.091 C 
ENDBRANCH   9  10
ENDBRANCH   8   9
ENDBRANCH   1   8
TORSDOF 3
ENDMDL
MODEL 5
REMARK VINA RESULT:      -3.9      4.307      5.818
REMARK  3 active torsions:
REMARK  status: ('A' for Active; 'I' for Inactive)
REMARK    1  A    between atoms: S_1  and  C_4 
REMARK    2  A    between atoms: S_1  and  C_5 
REMARK    3  A    between atoms: C_3  and  C_5 
ROOT
HETATM    1  C   UNL     1      59.908   7.754   2.712  1.00  0.00     0.001 A 
HETATM    2  C   UNL     1      57.261   7.013   2.090  1.00  0.00    -0.062 A 
HETATM    3  C   UNL     1      58.984   7.513   3.732  1.00  0.00     0.019 A 
HETATM    4  C   UNL     1      59.498   7.636   1.382  1.00  0.00     0.019 A 
HETATM    5  C   UNL     1      57.670   7.143   3.423  1.00  0.00     0.008 A 
HETATM    6  C   UNL     1      58.186   7.261   1.072  1.00  0.00     0.008 A 
HETATM    7  C   UNL     1      55.846   6.626   1.771  1.00  0.00     0.048 C 
ENDROOT
BRANCH   1   8
HETATM    8  S   UNL     1      61.573   8.293   3.057  1.00  0.00    -0.123 SA
BRANCH   8   9
HETATM    9  C   UNL     1      61.739   9.655   1.860  1.00  0.00     0.157 C 
BRANCH   9  10
HETATM   10  C   UNL     1      61.923  10.974   2.591  1.00  0.00     0.132 C 
HETATM   11  O   UNL     1      61.891  12.049   1.984  1.00  0.00    -0.298 OA
HETATM   12  C   UNL     1      62.073  10.941   4.091  1.00  0.00     0.091 C 
ENDBRANCH   9  10
ENDBRANCH   8   9
ENDBRANCH   1   8
TORSDOF 3
ENDMDL
MODEL 6
REMARK VINA RESULT:      -3.9      1.646      2.179
REMARK  3 active torsions:
REMARK  status: ('A' for Active; 'I' for Inactive)
REMARK    1  A    between atoms: S_1  and  C_4 
REMARK    2  A    between atoms: S_1  and  C_5 
REMARK    3  A    between atoms: C_3  and  C_5 
ROOT
HETATM    1  C   UNL     1      63.863   7.277   4.875  1.00  0.00     0.001 A 
HETATM    2  C   UNL     1      62.681   8.711   2.755  1.00  0.00    -0.062 A 
HETATM    3  C   UNL     1      63.733   6.692   3.613  1.00  0.00     0.019 A 
HETATM    4  C   UNL     1      63.387   8.576   5.074  1.00  0.00     0.019 A 
HETATM    5  C   UNL     1      63.149   7.405   2.560  1.00  0.00     0.008 A 
HETATM    6  C   UNL     1      62.808   9.291   4.021  1.00  0.00     0.008 A 
HETATM    7  C   UNL     1      62.047   9.462   1.621  1.00  0.00     0.048 C 
ENDROOT
BRANCH   1   8
HETATM    8  S   UNL     1      64.539   6.384   6.263  1.00  0.00    -0.123 SA
BRANCH   8   9
HETATM    9  C   UNL     1      65.984   7.419   6.656  1.00  0.00     0.157 C 
BRANCH   9  10
HETATM   10  C   UNL     1      67.182   6.978   5.832  1.00  0.00     0.132 C 
HETATM   11  O   UNL     1      67.797   5.943   6.105  1.00  0.00    -0.298 OA
HETATM   12  C   UNL     1      67.556   7.799   4.624  1.00  0.00     0.091 C 
ENDBRANCH   9  10
ENDBRANCH   8   9
ENDBRANCH   1   8
TORSDOF 3
ENDMDL
MODEL 7
REMARK VINA RESULT:      -3.8      2.873      4.092
REMARK  3 active torsions:
REMARK  status: ('A' for Active; 'I' for Inactive)
REMARK    1  A    between atoms: S_1  and  C_4 
REMARK    2  A    between atoms: S_1  and  C_5 
REMARK    3  A    between atoms: C_3  and  C_5 
ROOT
HETATM    1  C   UNL     1      66.043   6.047   5.525  1.00  0.00     0.001 A 
HETATM    2  C   UNL     1      64.171   8.137   5.258  1.00  0.00    -0.062 A 
HETATM    3  C   UNL     1      64.681   5.802   5.713  1.00  0.00     0.019 A 
HETATM    4  C   UNL     1      66.465   7.343   5.217  1.00  0.00     0.019 A 
HETATM    5  C   UNL     1      63.751   6.839   5.578  1.00  0.00     0.008 A 
HETATM    6  C   UNL     1      65.536   8.380   5.077  1.00  0.00     0.008 A 
HETATM    7  C   UNL     1      63.165   9.243   5.127  1.00  0.00     0.048 C 
ENDROOT
BRANCH   1   8
HETATM    8  S   UNL     1      67.270   4.773   5.753  1.00  0.00    -0.123 SA
BRANCH   8   9
HETATM    9  C   UNL     1      68.075   5.351   7.280  1.00  0.00     0.157 C 
BRANCH   9  10
HETATM   10  C   UNL     1      67.096   5.292   8.441  1.00  0.00     0.132 C 
HETATM   11  O   UNL     1      66.582   4.225   8.787  1.00  0.00    -0.298 OA
HETATM   12  C   UNL     1      66.827   6.562   9.209  1.00  0.00     0.091 C 
ENDBRANCH   9  10
ENDBRANCH   8   9
ENDBRANCH   1   8
TORSDOF 3
ENDMDL
MODEL 8
REMARK VINA RESULT:      -3.7      4.320      5.683
REMARK  3 active torsions:
REMARK  status: ('A' for Active; 'I' for Inactive)
REMARK    1  A    between atoms: S_1  and  C_4 
REMARK    2  A    between atoms: S_1  and  C_5 
REMARK    3  A    between atoms: C_3  and  C_5 
ROOT
HETATM    1  C   UNL     1      59.893   7.034   4.107  1.00  0.00     0.001 A 
HETATM    2  C   UNL     1      57.461   6.715   5.496  1.00  0.00    -0.062 A 
HETATM    3  C   UNL     1      58.742   7.700   3.678  1.00  0.00     0.019 A 
HETATM    4  C   UNL     1      59.817   6.199   5.225  1.00  0.00     0.019 A 
HETATM    5  C   UNL     1      57.535   7.543   4.368  1.00  0.00     0.008 A 
HETATM    6  C   UNL     1      58.613   6.046   5.920  1.00  0.00     0.008 A 
HETATM    7  C   UNL     1      56.158   6.546   6.222  1.00  0.00     0.048 C 
ENDROOT
BRANCH   1   8
HETATM    8  S   UNL     1      61.436   7.150   3.220  1.00  0.00    -0.123 SA
BRANCH   8   9
HETATM    9  C   UNL     1      62.203   8.567   4.067  1.00  0.00     0.157 C 
BRANCH   9  10
HETATM   10  C   UNL     1      61.841   9.860   3.356  1.00  0.00     0.132 C 
HETATM   11  O   UNL     1      61.594  10.889   3.991  1.00  0.00    -0.298 OA
HETATM   12  C   UNL     1      61.864   9.873   1.848  1.00  0.00     0.091 C 
ENDBRANCH   9  10
ENDBRANCH   8   9
ENDBRANCH   1   8
TORSDOF 3
ENDMDL
MODEL 9
REMARK VINA RESULT:      -3.5      2.443      5.727
REMARK  3 active torsions:
REMARK  status: ('A' for Active; 'I' for Inactive)
REMARK    1  A    between atoms: S_1  and  C_4 
REMARK    2  A    between atoms: S_1  and  C_5 
REMARK    3  A    between atoms: C_3  and  C_5 
ROOT
HETATM    1  C   UNL     1      63.903   7.287   5.137  1.00  0.00     0.001 A 
HETATM    2  C   UNL     1      66.408   6.531   6.184  1.00  0.00    -0.062 A 
HETATM    3  C   UNL     1      64.011   6.843   6.457  1.00  0.00     0.019 A 
HETATM    4  C   UNL     1      65.050   7.339   4.341  1.00  0.00     0.019 A 
HETATM    5  C   UNL     1      65.255   6.470   6.978  1.00  0.00     0.008 A 
HETATM    6  C   UNL     1      66.295   6.971   4.862  1.00  0.00     0.008 A 
HETATM    7  C   UNL     1      67.735   6.118   6.751  1.00  0.00     0.048 C 
ENDROOT
BRANCH   1   8
HETATM    8  S   UNL     1      62.329   7.709   4.410  1.00  0.00    -0.123 SA
BRANCH   8   9
HETATM    9  C   UNL     1      62.870   8.381   2.807  1.00  0.00     0.157 C 
BRANCH   9  10
HETATM   10  C   UNL     1      61.985   9.548   2.404  1.00  0.00     0.132 C 
HETATM   11  O   UNL     1      61.270   9.488   1.399  1.00  0.00    -0.298 OA
HETATM   12  C   UNL     1      61.944  10.755   3.306  1.00  0.00     0.091 C 
ENDBRANCH   9  10
ENDBRANCH   8   9
ENDBRANCH   1   8
TORSDOF 3
ENDMDL
