MODEL 1
REMARK VINA RESULT:      -6.0      0.000      0.000
REMARK  4 active torsions:
REMARK  status: ('A' for Active; 'I' for Inactive)
REMARK    1  A    between atoms: S_1  and  C_4 
REMARK    2  A    between atoms: S_1  and  C_7 
REMARK    3  A    between atoms: C_2  and  C_4 
REMARK    4  A    between atoms: C_3  and  C_5 
ROOT
HETATM    1  C   UNL     1      65.908   6.761   4.627  1.00  0.00    -0.029 A 
HETATM    2  C   UNL     1      66.556   6.527   5.869  1.00  0.00     0.048 A 
HETATM    3  C   UNL     1      66.009   5.753   3.651  1.00  0.00     0.009 A 
HETATM    4  C   UNL     1      67.311   5.355   6.064  1.00  0.00     0.019 A 
HETATM    5  C   UNL     1      66.753   4.589   3.864  1.00  0.00     0.001 A 
HETATM    6  C   UNL     1      67.413   4.392   5.072  1.00  0.00     0.001 A 
ENDROOT
BRANCH   1   7
HETATM    7  C   UNL     1      65.044   7.989   4.390  1.00  0.00     0.153 C 
BRANCH   7   8
HETATM    8  S   UNL     1      63.254   7.832   4.780  1.00  0.00     0.054 S 
HETATM    9  O   UNL     1      63.066   8.302   6.195  1.00  0.00    -0.252 OA
BRANCH   8  10
HETATM   10  C   UNL     1      62.639   9.177   3.743  1.00  0.00     0.031 A 
HETATM   11  C   UNL     1      62.448   8.955   2.374  1.00  0.00     0.021 A 
HETATM   12  C   UNL     1      61.999   9.989   1.550  1.00  0.00     0.001 A 
HETATM   13  C   UNL     1      61.725  11.243   2.094  1.00  0.00     0.000 A 
HETATM   14  C   UNL     1      61.881  11.461   3.462  1.00  0.00     0.001 A 
HETATM   15  C   UNL     1      62.331  10.428   4.287  1.00  0.00     0.021 A 
ENDBRANCH   8  10
ENDBRANCH   7   8
ENDBRANCH   1   7
BRANCH   2  16
HETATM   16  C   UNL     1      66.374   7.413   7.050  1.00  0.00     0.209 C 
HETATM   17  O   UNL     1      66.808   8.541   7.184  1.00  0.00    -0.644 OA
HETATM   18  O   UNL     1      65.571   6.857   7.978  1.00  0.00    -0.644 OA
ENDBRANCH   2  16
TORSDOF 4
ENDMDL
MODEL 2
REMARK VINA RESULT:      -6.0      1.739      6.200
REMARK  4 active torsions:
REMARK  status: ('A' for Active; 'I' for Inactive)
REMARK    1  A    between atoms: S_1  and  C_4 
REMARK    2  A    between atoms: S_1  and  C_7 
REMARK    3  A    between atoms: C_2  and  C_4 
REMARK    4  A    between atoms: C_3  and  C_5 
ROOT
HETATM    1  C   UNL     1      63.037   8.418   3.784  1.00  0.00    -0.029 A 
HETATM    2  C   UNL     1      62.449   9.703   3.643  1.00  0.00     0.048 A 
HETATM    3  C   UNL     1      63.078   7.603   2.638  1.00  0.00     0.009 A 
HETATM    4  C   UNL     1      61.885  10.094   2.415  1.00  0.00     0.019 A 
HETATM    5  C   UNL     1      62.524   8.009   1.420  1.00  0.00     0.001 A 
HETATM    6  C   UNL     1      61.918   9.256   1.310  1.00  0.00     0.001 A 
ENDROOT
BRANCH   1   7
HETATM    7  C   UNL     1      63.699   7.973   5.077  1.00  0.00     0.153 C 
BRANCH   7   8
HETATM    8  S   UNL     1      65.531   8.112   5.162  1.00  0.00     0.054 S 
HETATM    9  O   UNL     1      65.851   9.071   6.273  1.00  0.00    -0.252 OA
BRANCH   8  10
HETATM   10  C   UNL     1      65.890   6.472   5.827  1.00  0.00     0.031 A 
HETATM   11  C   UNL     1      67.088   5.837   5.478  1.00  0.00     0.021 A 
HETATM   12  C   UNL     1      67.372   4.558   5.960  1.00  0.00     0.001 A 
HETATM   13  C   UNL     1      66.468   3.914   6.802  1.00  0.00     0.000 A 
HETATM   14  C   UNL     1      65.288   4.554   7.180  1.00  0.00     0.001 A 
HETATM   15  C   UNL     1      65.002   5.833   6.699  1.00  0.00     0.021 A 
ENDBRANCH   8  10
ENDBRANCH   7   8
ENDBRANCH   1   7
BRANCH   2  16
HETATM   16  C   UNL     1      62.509  10.734   4.714  1.00  0.00     0.209 C 
HETATM   17  O   UNL     1      62.958  10.592   5.834  1.00  0.00    -0.644 OA
HETATM   18  O   UNL     1      62.071  11.933   4.282  1.00  0.00    -0.644 OA
ENDBRANCH   2  16
TORSDOF 4
ENDMDL
MODEL 3
REMARK VINA RESULT:      -5.9      1.386      2.110
REMARK  4 active torsions:
REMARK  status: ('A' for Active; 'I' for Inactive)
REMARK    1  A    between atoms: S_1  and  C_4 
REMARK    2  A    between atoms: S_1  and  C_7 
REMARK    3  A    between atoms: C_2  and  C_4 
REMARK    4  A    between atoms: C_3  and  C_5 
ROOT
HETATM    1  C   UNL     1      65.742   5.783   5.509  1.00  0.00    -0.029 A 
HETATM    2  C   UNL     1      66.850   6.517   6.011  1.00  0.00     0.048 A 
HETATM    3  C   UNL     1      65.654   4.427   5.871  1.00  0.00     0.009 A 
HETATM    4  C   UNL     1      67.834   5.873   6.783  1.00  0.00     0.019 A 
HETATM    5  C   UNL     1      66.634   3.804   6.650  1.00  0.00     0.001 A 
HETATM    6  C   UNL     1      67.732   4.527   7.101  1.00  0.00     0.001 A 
ENDROOT
BRANCH   1   7
HETATM    7  C   UNL     1      64.632   6.447   4.711  1.00  0.00     0.153 C 
BRANCH   7   8
HETATM    8  S   UNL     1      63.119   6.933   5.637  1.00  0.00     0.054 S 
HETATM    9  O   UNL     1      63.565   7.429   6.984  1.00  0.00    -0.252 OA
BRANCH   8  10
HETATM   10  C   UNL     1      62.697   8.414   4.696  1.00  0.00     0.031 A 
HETATM   11  C   UNL     1      62.821   9.671   5.300  1.00  0.00     0.021 A 
HETATM   12  C   UNL     1      62.474  10.826   4.598  1.00  0.00     0.001 A 
HETATM   13  C   UNL     1      62.015  10.732   3.285  1.00  0.00     0.000 A 
HETATM   14  C   UNL     1      61.919   9.487   2.666  1.00  0.00     0.001 A 
HETATM   15  C   UNL     1      62.266   8.330   3.367  1.00  0.00     0.021 A 
ENDBRANCH   8  10
ENDBRANCH   7   8
ENDBRANCH   1   7
BRANCH   2  16
HETATM   16  C   UNL     1      66.967   7.993   5.867  1.00  0.00     0.209 C 
HETATM   17  O   UNL     1      66.489   8.834   6.603  1.00  0.00    -0.644 OA
HETATM   18  O   UNL     1      67.763   8.336   4.836  1.00  0.00    -0.644 OA
ENDBRANCH   2  16
TORSDOF 4
ENDMDL
MODEL 4
REMARK VINA RESULT:      -5.9      3.103      5.408
REMARK  4 active torsions:
REMARK  status: ('A' for Active; 'I' for Inactive)
REMARK    1  A    between atoms: S_1  and  C_4 
REMARK    2  A    between atoms: S_1  and  C_7 
REMARK    3  A    between atoms: C_2  and  C_4 
REMARK    4  A    between atoms: C_3  and  C_5 
ROOT
HETATM    1  C   UNL     1      62.684   8.758   2.938  1.00  0.00    -0.029 A 
HETATM    2  C   UNL     1      62.724   9.496   4.150  1.00  0.00     0.048 A 
HETATM    3  C   UNL     1      62.241   9.437   1.788  1.00  0.00     0.009 A 
HETATM    4  C   UNL     1      62.275  10.829   4.183  1.00  0.00     0.019 A 
HETATM    5  C   UNL     1      61.810  10.766   1.834  1.00  0.00     0.001 A 
HETATM    6  C   UNL     1      61.819  11.463   3.037  1.00  0.00     0.001 A 
ENDROOT
BRANCH   1   7
HETATM    7  C   UNL     1      63.202   7.332   2.846  1.00  0.00     0.153 C 
BRANCH   7   8
HETATM    8  S   UNL     1      62.071   6.084   2.106  1.00  0.00     0.054 S 
HETATM    9  O   UNL     1      62.563   4.731   2.536  1.00  0.00    -0.252 OA
BRANCH   8  10
HETATM   10  C   UNL     1      60.615   6.410   3.123  1.00  0.00     0.031 A 
HETATM   11  C   UNL     1      60.611   6.009   4.464  1.00  0.00     0.021 A 
HETATM   12  C   UNL     1      59.485   6.229   5.260  1.00  0.00     0.001 A 
HETATM   13  C   UNL     1      58.365   6.861   4.723  1.00  0.00     0.000 A 
HETATM   14  C   UNL     1      58.375   7.292   3.397  1.00  0.00     0.001 A 
HETATM   15  C   UNL     1      59.500   7.073   2.600  1.00  0.00     0.021 A 
ENDBRANCH   8  10
ENDBRANCH   7   8
ENDBRANCH   1   7
BRANCH   2  16
HETATM   16  C   UNL     1      63.346   8.965   5.393  1.00  0.00     0.209 C 
HETATM   17  O   UNL     1      62.829   8.220   6.203  1.00  0.00    -0.644 OA
HETATM   18  O   UNL     1      64.635   9.339   5.509  1.00  0.00    -0.644 OA
ENDBRANCH   2  16
TORSDOF 4
ENDMDL
MODEL 5
REMARK VINA RESULT:      -5.8      1.687      2.177
REMARK  4 active torsions:
REMARK  status: ('A' for Active; 'I' for Inactive)
REMARK    1  A    between atoms: S_1  and  C_4 
REMARK    2  A    between atoms: S_1  and  C_7 
REMARK    3  A    between atoms: C_2  and  C_4 
REMARK    4  A    between atoms: C_3  and  C_5 
ROOT
HETATM    1  C   UNL     1      64.418   6.400   3.921  1.00  0.00    -0.029 A 
HETATM    2  C   UNL     1      65.466   7.027   4.647  1.00  0.00     0.048 A 
HETATM    3  C   UNL     1      64.780   5.370   3.033  1.00  0.00     0.009 A 
HETATM    4  C   UNL     1      66.805   6.656   4.420  1.00  0.00     0.019 A 
HETATM    5  C   UNL     1      66.114   5.005   2.828  1.00  0.00     0.001 A 
HETATM    6  C   UNL     1      67.131   5.655   3.518  1.00  0.00     0.001 A 
ENDROOT
BRANCH   1   7
HETATM    7  C   UNL     1      62.957   6.735   4.167  1.00  0.00     0.153 C 
BRANCH   7   8
HETATM    8  S   UNL     1      61.921   7.070   2.685  1.00  0.00     0.054 S 
HETATM    9  O   UNL     1      60.516   6.657   3.023  1.00  0.00    -0.252 OA
BRANCH   8  10
HETATM   10  C   UNL     1      61.922   8.874   2.764  1.00  0.00     0.031 A 
HETATM   11  C   UNL     1      62.025   9.507   4.008  1.00  0.00     0.021 A 
HETATM   12  C   UNL     1      62.001  10.900   4.093  1.00  0.00     0.001 A 
HETATM   13  C   UNL     1      61.888  11.666   2.935  1.00  0.00     0.000 A 
HETATM   14  C   UNL     1      61.818  11.044   1.689  1.00  0.00     0.001 A 
HETATM   15  C   UNL     1      61.841   9.650   1.603  1.00  0.00     0.021 A 
ENDBRANCH   8  10
ENDBRANCH   7   8
ENDBRANCH   1   7
BRANCH   2  16
HETATM   16  C   UNL     1      65.213   7.991   5.751  1.00  0.00     0.209 C 
HETATM   17  O   UNL     1      65.076   9.194   5.647  1.00  0.00    -0.644 OA
HETATM   18  O   UNL     1      65.058   7.369   6.936  1.00  0.00    -0.644 OA
ENDBRANCH   2  16
TORSDOF 4
ENDMDL
MODEL 6
REMARK VINA RESULT:      -5.8      2.155      6.404
REMARK  4 active torsions:
REMARK  status: ('A' for Active; 'I' for Inactive)
REMARK    1  A    between atoms: S_1  and  C_4 
REMARK    2  A    between atoms: S_1  and  C_7 
REMARK    3  A    between atoms: C_2  and  C_4 
REMARK    4  A    between atoms: C_3  and  C_5 
ROOT
HETATM    1  C   UNL     1      62.444   8.850   3.517  1.00  0.00    -0.029 A 
HETATM    2  C   UNL     1      62.196   8.875   2.119  1.00  0.00     0.048 A 
HETATM    3  C   UNL     1      62.312  10.065   4.214  1.00  0.00     0.009 A 
HETATM    4  C   UNL     1      61.895  10.090   1.475  1.00  0.00     0.019 A 
HETATM    5  C   UNL     1      61.999  11.262   3.562  1.00  0.00     0.001 A 
HETATM    6  C   UNL     1      61.798  11.276   2.186  1.00  0.00     0.001 A 
ENDROOT
BRANCH   1   7
HETATM    7  C   UNL     1      62.727   7.555   4.261  1.00  0.00     0.153 C 
BRANCH   7   8
HETATM    8  S   UNL     1      63.077   7.692   6.061  1.00  0.00     0.054 S 
HETATM    9  O   UNL     1      62.485   6.478   6.721  1.00  0.00    -0.252 OA
BRANCH   8  10
HETATM   10  C   UNL     1      64.857   7.390   6.008  1.00  0.00     0.031 A 
HETATM   11  C   UNL     1      65.619   7.959   4.982  1.00  0.00     0.021 A 
HETATM   12  C   UNL     1      66.992   7.716   4.908  1.00  0.00     0.001 A 
HETATM   13  C   UNL     1      67.610   6.915   5.866  1.00  0.00     0.000 A 
HETATM   14  C   UNL     1      66.862   6.370   6.909  1.00  0.00     0.001 A 
HETATM   15  C   UNL     1      65.489   6.613   6.985  1.00  0.00     0.021 A 
ENDBRANCH   8  10
ENDBRANCH   7   8
ENDBRANCH   1   7
BRANCH   2  16
HETATM   16  C   UNL     1      62.113   7.639   1.296  1.00  0.00     0.209 C 
HETATM   17  O   UNL     1      63.041   7.045   0.783  1.00  0.00    -0.644 OA
HETATM   18  O   UNL     1      60.855   7.162   1.231  1.00  0.00    -0.644 OA
ENDBRANCH   2  16
TORSDOF 4
ENDMDL
MODEL 7
REMARK VINA RESULT:      -5.5      3.834      5.833
REMARK  4 active torsions:
REMARK  status: ('A' for Active; 'I' for Inactive)
REMARK    1  A    between atoms: S_1  and  C_4 
REMARK    2  A    between atoms: S_1  and  C_7 
REMARK    3  A    between atoms: C_2  and  C_4 
REMARK    4  A    between atoms: C_3  and  C_5 
ROOT
HETATM    1  C   UNL     1      59.821   6.616   4.423  1.00  0.00    -0.029 A 
HETATM    2  C   UNL     1      59.231   6.138   5.623  1.00  0.00     0.048 A 
HETATM    3  C   UNL     1      58.991   7.332   3.541  1.00  0.00     0.009 A 
HETATM    4  C   UNL     1      57.858   6.335   5.865  1.00  0.00     0.019 A 
HETATM    5  C   UNL     1      57.631   7.530   3.801  1.00  0.00     0.001 A 
HETATM    6  C   UNL     1      57.061   7.023   4.963  1.00  0.00     0.001 A 
ENDROOT
BRANCH   1   7
HETATM    7  C   UNL     1      61.307   6.467   4.142  1.00  0.00     0.153 C 
BRANCH   7   8
HETATM    8  S   UNL     1      62.426   7.701   4.922  1.00  0.00     0.054 S 
HETATM    9  O   UNL     1      63.832   7.203   4.736  1.00  0.00    -0.252 OA
BRANCH   8  10
HETATM   10  C   UNL     1      62.227   9.035   3.721  1.00  0.00     0.031 A 
HETATM   11  C   UNL     1      62.068  10.349   4.175  1.00  0.00     0.021 A 
HETATM   12  C   UNL     1      61.887  11.391   3.263  1.00  0.00     0.001 A 
HETATM   13  C   UNL     1      61.877  11.125   1.895  1.00  0.00     0.000 A 
HETATM   14  C   UNL     1      62.067   9.823   1.435  1.00  0.00     0.001 A 
HETATM   15  C   UNL     1      62.249   8.780   2.346  1.00  0.00     0.021 A 
ENDBRANCH   8  10
ENDBRANCH   7   8
ENDBRANCH   1   7
BRANCH   2  16
HETATM   16  C   UNL     1      60.028   5.536   6.725  1.00  0.00     0.209 C 
HETATM   17  O   UNL     1      60.511   6.121   7.675  1.00  0.00    -0.644 OA
HETATM   18  O   UNL     1      60.105   4.195   6.616  1.00  0.00    -0.644 OA
ENDBRANCH   2  16
TORSDOF 4
ENDMDL
MODEL 8
REMARK VINA RESULT:      -5.5      2.075      6.070
REMARK  4 active torsions:
REMARK  status: ('A' for Active; 'I' for Inactive)
REMARK    1  A    between atoms: S_1  and  C_4 
REMARK    2  A    between atoms: S_1  and  C_7 
REMARK    3  A    between atoms: C_2  and  C_4 
REMARK    4  A    between atoms: C_3  and  C_5 
ROOT
HETATM    1  C   UNL     1      63.569   6.983   3.820  1.00  0.00    -0.029 A 
HETATM    2  C   UNL     1      63.346   8.372   4.014  1.00  0.00     0.048 A 
HETATM    3  C   UNL     1      63.235   6.449   2.562  1.00  0.00     0.009 A 
HETATM    4  C   UNL     1      62.756   9.144   2.995  1.00  0.00     0.019 A 
HETATM    5  C   UNL     1      62.661   7.231   1.555  1.00  0.00     0.001 A 
HETATM    6  C   UNL     1      62.413   8.582   1.775  1.00  0.00     0.001 A 
ENDROOT
BRANCH   1   7
HETATM    7  C   UNL     1      64.246   6.122   4.873  1.00  0.00     0.153 C 
BRANCH   7   8
HETATM    8  S   UNL     1      66.025   5.736   4.613  1.00  0.00     0.054 S 
HETATM    9  O   UNL     1      66.656   6.952   3.995  1.00  0.00    -0.252 OA
BRANCH   8  10
HETATM   10  C   UNL     1      66.554   5.747   6.340  1.00  0.00     0.031 A 
HETATM   11  C   UNL     1      65.822   6.486   7.277  1.00  0.00     0.021 A 
HETATM   12  C   UNL     1      66.229   6.529   8.612  1.00  0.00     0.001 A 
HETATM   13  C   UNL     1      67.360   5.823   9.017  1.00  0.00     0.000 A 
HETATM   14  C   UNL     1      68.075   5.059   8.096  1.00  0.00     0.001 A 
HETATM   15  C   UNL     1      67.669   5.015   6.761  1.00  0.00     0.021 A 
ENDBRANCH   8  10
ENDBRANCH   7   8
ENDBRANCH   1   7
BRANCH   2  16
HETATM   16  C   UNL     1      63.827   9.102   5.217  1.00  0.00     0.209 C 
HETATM   17  O   UNL     1      64.982   9.351   5.502  1.00  0.00    -0.644 OA
HETATM   18  O   UNL     1      62.806   9.562   5.967  1.00  0.00    -0.644 OA
ENDBRANCH   2  16
TORSDOF 4
ENDMDL
MODEL 9
REMARK VINA RESULT:      -5.3      2.083      2.515
REMARK  4 active torsions:
REMARK  status: ('A' for Active; 'I' for Inactive)
REMARK    1  A    between atoms: S_1  and  C_4 
REMARK    2  A    between atoms: S_1  and  C_7 
REMARK    3  A    between atoms: C_2  and  C_4 
REMARK    4  A    between atoms: C_3  and  C_5 
ROOT
HETATM    1  C   UNL     1      64.975   6.946   5.515  1.00  0.00    -0.029 A 
HETATM    2  C   UNL     1      65.535   5.691   5.872  1.00  0.00     0.048 A 
HETATM    3  C   UNL     1      65.860   8.035   5.406  1.00  0.00     0.009 A 
HETATM    4  C   UNL     1      66.909   5.583   6.159  1.00  0.00     0.019 A 
HETATM    5  C   UNL     1      67.225   7.910   5.682  1.00  0.00     0.001 A 
HETATM    6  C   UNL     1      67.750   6.681   6.068  1.00  0.00     0.001 A 
ENDROOT
BRANCH   1   7
HETATM    7  C   UNL     1      63.508   7.099   5.152  1.00  0.00     0.153 C 
BRANCH   7   8
HETATM    8  S   UNL     1      63.083   7.022   3.364  1.00  0.00     0.054 S 
HETATM    9  O   UNL     1      61.821   6.215   3.243  1.00  0.00    -0.252 OA
BRANCH   8  10
HETATM   10  C   UNL     1      62.576   8.741   3.138  1.00  0.00     0.031 A 
HETATM   11  C   UNL     1      62.235   9.194   1.859  1.00  0.00     0.021 A 
HETATM   12  C   UNL     1      61.866  10.525   1.659  1.00  0.00     0.001 A 
HETATM   13  C   UNL     1      61.824  11.405   2.739  1.00  0.00     0.000 A 
HETATM   14  C   UNL     1      62.131  10.953   4.021  1.00  0.00     0.001 A 
HETATM   15  C   UNL     1      62.500   9.621   4.223  1.00  0.00     0.021 A 
ENDBRANCH   8  10
ENDBRANCH   7   8
ENDBRANCH   1   7
BRANCH   2  16
HETATM   16  C   UNL     1      64.754   4.425   5.838  1.00  0.00     0.209 C 
HETATM   17  O   UNL     1      64.532   3.735   4.862  1.00  0.00    -0.644 OA
HETATM   18  O   UNL     1      64.360   4.044   7.069  1.00  0.00    -0.644 OA
ENDBRANCH   2  16
TORSDOF 4
ENDMDL
