MODEL 1
REMARK VINA RESULT:      -5.4      0.000      0.000
REMARK  1 active torsions:
REMARK  status: ('A' for Active; 'I' for Inactive)
REMARK    1  A    between atoms: C_7  and  N_9 
ROOT
HETATM    1  C   UNL     1      62.358   9.270   3.022  1.00  0.00     0.016 A 
HETATM    2  C   UNL     1      63.251   8.677   3.927  1.00  0.00    -0.042 A 
HETATM    3  C   UNL     1      62.004   8.575   1.756  1.00  0.00     0.160 C 
HETATM    4  C   UNL     1      61.844  10.545   3.270  1.00  0.00     0.018 A 
HETATM    5  C   UNL     1      63.645   9.406   5.062  1.00  0.00     0.037 A 
HETATM    6  O   UNL     1      61.142   9.030   1.008  1.00  0.00    -0.292 OA
HETATM    7  C   UNL     1      63.119  10.674   5.331  1.00  0.00     0.026 A 
HETATM    8  C   UNL     1      62.243  11.248   4.407  1.00  0.00     0.030 A 
HETATM    9  C   UNL     1      63.850   7.317   3.678  1.00  0.00     0.040 C 
HETATM   10  C   UNL     1      62.809   7.348   1.401  1.00  0.00     0.084 C 
HETATM   11  C   UNL     1      63.064   6.514   2.645  1.00  0.00     0.012 C 
ENDROOT
BRANCH   7  12
HETATM   12  N   UNL     1      63.649  11.447   6.370  1.00  0.00    -0.399 N 
HETATM   13  H   UNL     1      64.441  11.132   6.863  1.00  0.00     0.156 HD
HETATM   14  H   UNL     1      63.231  12.306   6.608  1.00  0.00     0.156 HD
ENDBRANCH   7  12
TORSDOF 1
ENDMDL
MODEL 2
REMARK VINA RESULT:      -5.2      2.233      3.396
REMARK  1 active torsions:
REMARK  status: ('A' for Active; 'I' for Inactive)
REMARK    1  A    between atoms: C_7  and  N_9 
ROOT
HETATM    1  C   UNL     1      62.818   9.270   3.787  1.00  0.00     0.016 A 
HETATM    2  C   UNL     1      63.002   8.229   2.865  1.00  0.00    -0.042 A 
HETATM    3  C   UNL     1      62.096  10.506   3.386  1.00  0.00     0.160 C 
HETATM    4  C   UNL     1      63.366   9.183   5.070  1.00  0.00     0.018 A 
HETATM    5  C   UNL     1      63.779   7.121   3.245  1.00  0.00     0.037 A 
HETATM    6  O   UNL     1      61.832  11.378   4.211  1.00  0.00    -0.292 OA
HETATM    7  C   UNL     1      64.313   7.014   4.533  1.00  0.00     0.026 A 
HETATM    8  C   UNL     1      64.127   8.070   5.428  1.00  0.00     0.030 A 
HETATM    9  C   UNL     1      62.453   8.302   1.465  1.00  0.00     0.040 C 
HETATM   10  C   UNL     1      61.788  10.672   1.918  1.00  0.00     0.084 C 
HETATM   11  C   UNL     1      61.348   9.344   1.324  1.00  0.00     0.012 C 
ENDROOT
BRANCH   7  12
HETATM   12  N   UNL     1      65.218   5.990   4.834  1.00  0.00    -0.399 N 
HETATM   13  H   UNL     1      65.565   5.414   4.115  1.00  0.00     0.156 HD
HETATM   14  H   UNL     1      65.507   5.846   5.764  1.00  0.00     0.156 HD
ENDBRANCH   7  12
TORSDOF 1
ENDMDL
MODEL 3
REMARK VINA RESULT:      -5.1      2.558      4.091
REMARK  1 active torsions:
REMARK  status: ('A' for Active; 'I' for Inactive)
REMARK    1  A    between atoms: C_7  and  N_9 
ROOT
HETATM    1  C   UNL     1      62.256   9.752   2.432  1.00  0.00     0.016 A 
HETATM    2  C   UNL     1      62.634   8.756   3.343  1.00  0.00    -0.042 A 
HETATM    3  C   UNL     1      62.024  11.145   2.899  1.00  0.00     0.160 C 
HETATM    4  C   UNL     1      62.030   9.434   1.090  1.00  0.00     0.018 A 
HETATM    5  C   UNL     1      62.743   7.431   2.888  1.00  0.00     0.037 A 
HETATM    6  O   UNL     1      61.800  12.049   2.098  1.00  0.00    -0.292 OA
HETATM    7  C   UNL     1      62.541   7.105   1.542  1.00  0.00     0.026 A 
HETATM    8  C   UNL     1      62.151   8.113   0.657  1.00  0.00     0.030 A 
HETATM    9  C   UNL     1      62.855   9.055   4.803  1.00  0.00     0.040 C 
HETATM   10  C   UNL     1      61.990  11.368   4.392  1.00  0.00     0.084 C 
HETATM   11  C   UNL     1      63.072  10.542   5.067  1.00  0.00     0.012 C 
ENDROOT
BRANCH   7  12
HETATM   12  N   UNL     1      62.489   5.765   1.145  1.00  0.00    -0.399 N 
HETATM   13  H   UNL     1      63.189   5.398   0.558  1.00  0.00     0.156 HD
HETATM   14  H   UNL     1      61.752   5.188   1.453  1.00  0.00     0.156 HD
ENDBRANCH   7  12
TORSDOF 1
ENDMDL
MODEL 4
REMARK VINA RESULT:      -4.9      2.928      3.838
REMARK  1 active torsions:
REMARK  status: ('A' for Active; 'I' for Inactive)
REMARK    1  A    between atoms: C_7  and  N_9 
ROOT
HETATM    1  C   UNL     1      64.037   8.500   4.484  1.00  0.00     0.016 A 
HETATM    2  C   UNL     1      63.764   7.536   3.502  1.00  0.00    -0.042 A 
HETATM    3  C   UNL     1      65.219   8.348   5.374  1.00  0.00     0.160 C 
HETATM    4  C   UNL     1      63.168   9.576   4.680  1.00  0.00     0.018 A 
HETATM    5  C   UNL     1      62.583   7.656   2.750  1.00  0.00     0.037 A 
HETATM    6  O   UNL     1      65.532   9.236   6.163  1.00  0.00    -0.292 OA
HETATM    7  C   UNL     1      61.717   8.740   2.922  1.00  0.00     0.026 A 
HETATM    8  C   UNL     1      62.004   9.678   3.917  1.00  0.00     0.030 A 
HETATM    9  C   UNL     1      64.662   6.347   3.284  1.00  0.00     0.040 C 
HETATM   10  C   UNL     1      65.950   7.028   5.320  1.00  0.00     0.084 C 
HETATM   11  C   UNL     1      66.051   6.547   3.882  1.00  0.00     0.012 C 
ENDROOT
BRANCH   7  12
HETATM   12  N   UNL     1      60.471   8.751   2.287  1.00  0.00    -0.399 N 
HETATM   13  H   UNL     1      59.890   9.543   2.356  1.00  0.00     0.156 HD
HETATM   14  H   UNL     1      60.175   7.967   1.770  1.00  0.00     0.156 HD
ENDBRANCH   7  12
TORSDOF 1
ENDMDL
MODEL 5
REMARK VINA RESULT:      -4.6      3.009      4.250
REMARK  1 active torsions:
REMARK  status: ('A' for Active; 'I' for Inactive)
REMARK    1  A    between atoms: C_7  and  N_9 
ROOT
HETATM    1  C   UNL     1      64.202   8.492   4.690  1.00  0.00     0.016 A 
HETATM    2  C   UNL     1      63.976   7.524   3.701  1.00  0.00    -0.042 A 
HETATM    3  C   UNL     1      63.201   9.565   4.930  1.00  0.00     0.160 C 
HETATM    4  C   UNL     1      65.398   8.498   5.413  1.00  0.00     0.018 A 
HETATM    5  C   UNL     1      64.989   6.588   3.429  1.00  0.00     0.037 A 
HETATM    6  O   UNL     1      63.334  10.353   5.863  1.00  0.00    -0.292 OA
HETATM    7  C   UNL     1      66.180   6.570   4.162  1.00  0.00     0.026 A 
HETATM    8  C   UNL     1      66.387   7.554   5.132  1.00  0.00     0.030 A 
HETATM    9  C   UNL     1      62.714   7.506   2.880  1.00  0.00     0.040 C 
HETATM   10  C   UNL     1      62.078   9.688   3.929  1.00  0.00     0.084 C 
HETATM   11  C   UNL     1      61.587   8.308   3.524  1.00  0.00     0.012 C 
ENDROOT
BRANCH   7  12
HETATM   12  N   UNL     1      67.236   5.744   3.764  1.00  0.00    -0.399 N 
HETATM   13  H   UNL     1      67.369   4.872   4.201  1.00  0.00     0.156 HD
HETATM   14  H   UNL     1      67.846   6.034   3.048  1.00  0.00     0.156 HD
ENDBRANCH   7  12
TORSDOF 1
ENDMDL
MODEL 6
REMARK VINA RESULT:      -4.5      1.668      2.373
REMARK  1 active torsions:
REMARK  status: ('A' for Active; 'I' for Inactive)
REMARK    1  A    between atoms: C_7  and  N_9 
ROOT
HETATM    1  C   UNL     1      63.430   8.162   3.621  1.00  0.00     0.016 A 
HETATM    2  C   UNL     1      64.019   8.753   4.747  1.00  0.00    -0.042 A 
HETATM    3  C   UNL     1      63.951   6.874   3.093  1.00  0.00     0.160 C 
HETATM    4  C   UNL     1      62.390   8.807   2.946  1.00  0.00     0.018 A 
HETATM    5  C   UNL     1      63.570  10.021   5.157  1.00  0.00     0.037 A 
HETATM    6  O   UNL     1      63.378   6.290   2.176  1.00  0.00    -0.292 OA
HETATM    7  C   UNL     1      62.515  10.666   4.502  1.00  0.00     0.026 A 
HETATM    8  C   UNL     1      61.954  10.062   3.374  1.00  0.00     0.030 A 
HETATM    9  C   UNL     1      65.162   8.103   5.481  1.00  0.00     0.040 C 
HETATM   10  C   UNL     1      65.253   6.374   3.673  1.00  0.00     0.084 C 
HETATM   11  C   UNL     1      65.280   6.613   5.173  1.00  0.00     0.012 C 
ENDROOT
BRANCH   7  12
HETATM   12  N   UNL     1      62.199  11.991   4.818  1.00  0.00    -0.399 N 
HETATM   13  H   UNL     1      61.709  12.195   5.648  1.00  0.00     0.156 HD
HETATM   14  H   UNL     1      62.465  12.720   4.212  1.00  0.00     0.156 HD
ENDBRANCH   7  12
TORSDOF 1
ENDMDL
MODEL 7
REMARK VINA RESULT:      -4.2      2.526      3.875
REMARK  1 active torsions:
REMARK  status: ('A' for Active; 'I' for Inactive)
REMARK    1  A    between atoms: C_7  and  N_9 
ROOT
HETATM    1  C   UNL     1      64.363   7.452   3.810  1.00  0.00     0.016 A 
HETATM    2  C   UNL     1      64.502   8.424   4.811  1.00  0.00    -0.042 A 
HETATM    3  C   UNL     1      63.122   7.391   2.994  1.00  0.00     0.160 C 
HETATM    4  C   UNL     1      65.359   6.492   3.613  1.00  0.00     0.018 A 
HETATM    5  C   UNL     1      65.642   8.388   5.633  1.00  0.00     0.037 A 
HETATM    6  O   UNL     1      63.030   6.618   2.043  1.00  0.00    -0.292 OA
HETATM    7  C   UNL     1      66.656   7.446   5.431  1.00  0.00     0.026 A 
HETATM    8  C   UNL     1      66.486   6.479   4.436  1.00  0.00     0.030 A 
HETATM    9  C   UNL     1      63.435   9.455   5.073  1.00  0.00     0.040 C 
HETATM   10  C   UNL     1      61.965   8.252   3.442  1.00  0.00     0.084 C 
HETATM   11  C   UNL     1      62.473   9.610   3.899  1.00  0.00     0.012 C 
ENDROOT
BRANCH   7  12
HETATM   12  N   UNL     1      67.693   7.321   6.360  1.00  0.00    -0.399 N 
HETATM   13  H   UNL     1      68.255   6.512   6.364  1.00  0.00     0.156 HD
HETATM   14  H   UNL     1      67.863   8.042   7.009  1.00  0.00     0.156 HD
ENDBRANCH   7  12
TORSDOF 1
ENDMDL
MODEL 8
REMARK VINA RESULT:      -4.2      4.769      5.963
REMARK  1 active torsions:
REMARK  status: ('A' for Active; 'I' for Inactive)
REMARK    1  A    between atoms: C_7  and  N_9 
ROOT
HETATM    1  C   UNL     1      65.685   6.927   6.596  1.00  0.00     0.016 A 
HETATM    2  C   UNL     1      65.188   5.631   6.394  1.00  0.00    -0.042 A 
HETATM    3  C   UNL     1      65.259   8.039   5.706  1.00  0.00     0.160 C 
HETATM    4  C   UNL     1      66.633   7.174   7.592  1.00  0.00     0.018 A 
HETATM    5  C   UNL     1      65.691   4.585   7.186  1.00  0.00     0.037 A 
HETATM    6  O   UNL     1      65.599   9.197   5.936  1.00  0.00    -0.292 OA
HETATM    7  C   UNL     1      66.624   4.824   8.201  1.00  0.00     0.026 A 
HETATM    8  C   UNL     1      67.113   6.121   8.372  1.00  0.00     0.030 A 
HETATM    9  C   UNL     1      64.190   5.322   5.309  1.00  0.00     0.040 C 
HETATM   10  C   UNL     1      64.472   7.664   4.472  1.00  0.00     0.084 C 
HETATM   11  C   UNL     1      63.472   6.570   4.805  1.00  0.00     0.012 C 
ENDROOT
BRANCH   7  12
HETATM   12  N   UNL     1      67.233   3.751   8.860  1.00  0.00    -0.399 N 
HETATM   13  H   UNL     1      68.190   3.795   9.090  1.00  0.00     0.156 HD
HETATM   14  H   UNL     1      66.707   2.953   9.095  1.00  0.00     0.156 HD
ENDBRANCH   7  12
TORSDOF 1
ENDMDL
MODEL 9
REMARK VINA RESULT:      -4.1      3.040      4.683
REMARK  1 active torsions:
REMARK  status: ('A' for Active; 'I' for Inactive)
REMARK    1  A    between atoms: C_7  and  N_9 
ROOT
HETATM    1  C   UNL     1      61.957   8.529   4.062  1.00  0.00     0.016 A 
HETATM    2  C   UNL     1      61.763   9.476   3.046  1.00  0.00    -0.042 A 
HETATM    3  C   UNL     1      62.545   8.939   5.365  1.00  0.00     0.160 C 
HETATM    4  C   UNL     1      61.661   7.182   3.840  1.00  0.00     0.018 A 
HETATM    5  C   UNL     1      61.304   9.035   1.793  1.00  0.00     0.037 A 
HETATM    6  O   UNL     1      62.619   8.146   6.301  1.00  0.00    -0.292 OA
HETATM    7  C   UNL     1      60.984   7.693   1.565  1.00  0.00     0.026 A 
HETATM    8  C   UNL     1      61.199   6.768   2.589  1.00  0.00     0.030 A 
HETATM    9  C   UNL     1      62.101  10.931   3.239  1.00  0.00     0.040 C 
HETATM   10  C   UNL     1      63.118  10.334   5.447  1.00  0.00     0.084 C 
HETATM   11  C   UNL     1      62.217  11.312   4.712  1.00  0.00     0.012 C 
ENDROOT
BRANCH   7  12
HETATM   12  N   UNL     1      60.692   7.251   0.271  1.00  0.00    -0.399 N 
HETATM   13  H   UNL     1      60.818   7.856  -0.496  1.00  0.00     0.156 HD
HETATM   14  H   UNL     1      60.361   6.335   0.125  1.00  0.00     0.156 HD
ENDBRANCH   7  12
TORSDOF 1
ENDMDL
