MODEL 1
REMARK VINA RESULT:      -5.7      0.000      0.000
REMARK  2 active torsions:
REMARK  status: ('A' for Active; 'I' for Inactive)
REMARK       I    between atoms: C_1  and  N_2 
REMARK    1  A    between atoms: C_1  and  C_4 
REMARK    2  A    between atoms: N_2  and  C_7 
ROOT
HETATM    1  C   UNL     1      65.074   8.212   5.559  1.00  0.00     0.256 C 
HETATM    2  N   UNL     1      64.701   7.333   6.562  1.00  0.00    -0.323 N 
HETATM    3  O   UNL     1      66.219   8.384   5.150  1.00  0.00    -0.267 OA
HETATM    4  H   UNL     1      63.744   7.283   6.787  1.00  0.00     0.169 HD
ENDROOT
BRANCH   2   5
HETATM    5  C   UNL     1      65.587   6.500   7.290  1.00  0.00     0.037 A 
HETATM    6  C   UNL     1      66.450   6.973   8.275  1.00  0.00     0.046 A 
HETATM    7  C   UNL     1      67.311   6.083   8.891  1.00  0.00     0.090 A 
HETATM    8  N   UNL     1      67.367   4.768   8.600  1.00  0.00    -0.375 N 
HETATM    9  C   UNL     1      66.506   4.325   7.661  1.00  0.00     0.090 A 
ATOM     10  HN  UNL     1      68.023   4.142   9.066  1.00  0.00     0.164 HD
HETATM   11  C   UNL     1      65.596   5.137   6.999  1.00  0.00     0.046 A 
ENDBRANCH   2   5
BRANCH   1  12
HETATM   12  C   UNL     1      63.994   9.011   4.914  1.00  0.00     0.032 A 
HETATM   13  C   UNL     1      63.381   8.457   3.779  1.00  0.00     0.017 A 
HETATM   14  C   UNL     1      62.337   9.123   3.137  1.00  0.00     0.001 A 
HETATM   15  C   UNL     1      61.894  10.349   3.628  1.00  0.00     0.000 A 
HETATM   16  C   UNL     1      62.491  10.904   4.761  1.00  0.00     0.001 A 
HETATM   17  C   UNL     1      63.538  10.239   5.409  1.00  0.00     0.017 A 
ENDBRANCH   1  12
TORSDOF 2
ENDMDL
MODEL 2
REMARK VINA RESULT:      -5.7      1.461      1.527
REMARK  2 active torsions:
REMARK  status: ('A' for Active; 'I' for Inactive)
REMARK       I    between atoms: C_1  and  N_2 
REMARK    1  A    between atoms: C_1  and  C_4 
REMARK    2  A    between atoms: N_2  and  C_7 
ROOT
HETATM    1  C   UNL     1      63.297   8.003   5.715  1.00  0.00     0.256 C 
HETATM    2  N   UNL     1      64.457   7.272   5.528  1.00  0.00    -0.323 N 
HETATM    3  O   UNL     1      62.607   8.000   6.731  1.00  0.00    -0.267 OA
HETATM    4  H   UNL     1      64.923   7.375   4.667  1.00  0.00     0.169 HD
ENDROOT
BRANCH   2   5
HETATM    5  C   UNL     1      65.029   6.388   6.477  1.00  0.00     0.037 A 
HETATM    6  C   UNL     1      65.914   6.799   7.472  1.00  0.00     0.046 A 
HETATM    7  C   UNL     1      66.455   5.847   8.316  1.00  0.00     0.090 A 
HETATM    8  N   UNL     1      66.175   4.530   8.243  1.00  0.00    -0.375 N 
HETATM    9  C   UNL     1      65.298   4.156   7.289  1.00  0.00     0.090 A 
ATOM     10  HN  UNL     1      66.602   3.854   8.875  1.00  0.00     0.164 HD
HETATM   11  C   UNL     1      64.692   5.038   6.404  1.00  0.00     0.046 A 
ENDBRANCH   2   5
BRANCH   1  12
HETATM   12  C   UNL     1      62.849   8.875   4.592  1.00  0.00     0.032 A 
HETATM   13  C   UNL     1      62.728   8.275   3.328  1.00  0.00     0.017 A 
HETATM   14  C   UNL     1      62.280   9.011   2.231  1.00  0.00     0.001 A 
HETATM   15  C   UNL     1      61.943  10.353   2.390  1.00  0.00     0.000 A 
HETATM   16  C   UNL     1      62.051  10.956   3.644  1.00  0.00     0.001 A 
HETATM   17  C   UNL     1      62.500  10.222   4.748  1.00  0.00     0.017 A 
ENDBRANCH   1  12
TORSDOF 2
ENDMDL
MODEL 3
REMARK VINA RESULT:      -5.6      1.613      6.115
REMARK  2 active torsions:
REMARK  status: ('A' for Active; 'I' for Inactive)
REMARK       I    between atoms: C_1  and  N_2 
REMARK    1  A    between atoms: C_1  and  C_4 
REMARK    2  A    between atoms: N_2  and  C_7 
ROOT
HETATM    1  C   UNL     1      65.950   7.896   5.801  1.00  0.00     0.256 C 
HETATM    2  N   UNL     1      64.576   8.015   5.918  1.00  0.00    -0.323 N 
HETATM    3  O   UNL     1      66.648   8.467   4.967  1.00  0.00    -0.267 OA
HETATM    4  H   UNL     1      64.138   7.511   6.641  1.00  0.00     0.169 HD
ENDROOT
BRANCH   2   5
HETATM    5  C   UNL     1      63.749   8.806   5.081  1.00  0.00     0.037 A 
HETATM    6  C   UNL     1      63.277  10.066   5.439  1.00  0.00     0.046 A 
HETATM    7  C   UNL     1      62.434  10.734   4.570  1.00  0.00     0.090 A 
HETATM    8  N   UNL     1      62.038  10.241   3.380  1.00  0.00    -0.375 N 
HETATM    9  C   UNL     1      62.525   9.030   3.041  1.00  0.00     0.090 A 
ATOM     10  HN  UNL     1      61.404  10.756   2.769  1.00  0.00     0.164 HD
HETATM   11  C   UNL     1      63.387   8.290   3.838  1.00  0.00     0.046 A 
ENDBRANCH   2   5
BRANCH   1  12
HETATM   12  C   UNL     1      66.645   7.007   6.774  1.00  0.00     0.032 A 
HETATM   13  C   UNL     1      67.364   5.923   6.246  1.00  0.00     0.017 A 
HETATM   14  C   UNL     1      68.074   5.063   7.085  1.00  0.00     0.001 A 
HETATM   15  C   UNL     1      68.074   5.284   8.460  1.00  0.00     0.000 A 
HETATM   16  C   UNL     1      67.369   6.364   8.994  1.00  0.00     0.001 A 
HETATM   17  C   UNL     1      66.657   7.229   8.157  1.00  0.00     0.017 A 
ENDBRANCH   1  12
TORSDOF 2
ENDMDL
MODEL 4
REMARK VINA RESULT:      -5.5      1.939      6.421
REMARK  2 active torsions:
REMARK  status: ('A' for Active; 'I' for Inactive)
REMARK       I    between atoms: C_1  and  N_2 
REMARK    1  A    between atoms: C_1  and  C_4 
REMARK    2  A    between atoms: N_2  and  C_7 
ROOT
HETATM    1  C   UNL     1      64.593   7.391   6.256  1.00  0.00     0.256 C 
HETATM    2  N   UNL     1      64.683   8.170   5.115  1.00  0.00    -0.323 N 
HETATM    3  O   UNL     1      63.579   7.227   6.930  1.00  0.00    -0.267 OA
HETATM    4  H   UNL     1      65.555   8.207   4.660  1.00  0.00     0.169 HD
ENDROOT
BRANCH   2   5
HETATM    5  C   UNL     1      63.620   8.918   4.549  1.00  0.00     0.037 A 
HETATM    6  C   UNL     1      62.902   8.504   3.430  1.00  0.00     0.046 A 
HETATM    7  C   UNL     1      61.917   9.333   2.926  1.00  0.00     0.090 A 
HETATM    8  N   UNL     1      61.596  10.530   3.458  1.00  0.00    -0.375 N 
HETATM    9  C   UNL     1      62.286  10.901   4.555  1.00  0.00     0.090 A 
ATOM     10  HN  UNL     1      60.871  11.121   3.053  1.00  0.00     0.164 HD
HETATM   11  C   UNL     1      63.282  10.133   5.143  1.00  0.00     0.046 A 
ENDBRANCH   2   5
BRANCH   1  12
HETATM   12  C   UNL     1      65.827   6.684   6.701  1.00  0.00     0.032 A 
HETATM   13  C   UNL     1      66.167   6.789   8.059  1.00  0.00     0.017 A 
HETATM   14  C   UNL     1      67.286   6.127   8.565  1.00  0.00     0.001 A 
HETATM   15  C   UNL     1      68.072   5.351   7.717  1.00  0.00     0.000 A 
HETATM   16  C   UNL     1      67.738   5.234   6.368  1.00  0.00     0.001 A 
HETATM   17  C   UNL     1      66.616   5.895   5.855  1.00  0.00     0.017 A 
ENDBRANCH   1  12
TORSDOF 2
ENDMDL
MODEL 5
REMARK VINA RESULT:      -5.2      1.600      2.318
REMARK  2 active torsions:
REMARK  status: ('A' for Active; 'I' for Inactive)
REMARK       I    between atoms: C_1  and  N_2 
REMARK    1  A    between atoms: C_1  and  C_4 
REMARK    2  A    between atoms: N_2  and  C_7 
ROOT
HETATM    1  C   UNL     1      63.770   7.556   4.226  1.00  0.00     0.256 C 
HETATM    2  N   UNL     1      64.745   7.943   5.130  1.00  0.00    -0.323 N 
HETATM    3  O   UNL     1      63.458   6.398   3.964  1.00  0.00    -0.267 OA
HETATM    4  H   UNL     1      64.888   8.909   5.255  1.00  0.00     0.169 HD
ENDROOT
BRANCH   2   5
HETATM    5  C   UNL     1      65.551   7.060   5.890  1.00  0.00     0.037 A 
HETATM    6  C   UNL     1      66.772   6.560   5.444  1.00  0.00     0.046 A 
HETATM    7  C   UNL     1      67.457   5.663   6.243  1.00  0.00     0.090 A 
HETATM    8  N   UNL     1      67.018   5.239   7.445  1.00  0.00    -0.375 N 
HETATM    9  C   UNL     1      65.846   5.753   7.870  1.00  0.00     0.090 A 
ATOM     10  HN  UNL     1      67.544   4.567   8.003  1.00  0.00     0.164 HD
HETATM   11  C   UNL     1      65.093   6.668   7.147  1.00  0.00     0.046 A 
ENDBRANCH   2   5
BRANCH   1  12
HETATM   12  C   UNL     1      63.030   8.637   3.514  1.00  0.00     0.032 A 
HETATM   13  C   UNL     1      62.650   9.756   4.272  1.00  0.00     0.017 A 
HETATM   14  C   UNL     1      61.987  10.828   3.675  1.00  0.00     0.001 A 
HETATM   15  C   UNL     1      61.701  10.791   2.312  1.00  0.00     0.000 A 
HETATM   16  C   UNL     1      62.082   9.688   1.548  1.00  0.00     0.001 A 
HETATM   17  C   UNL     1      62.749   8.610   2.142  1.00  0.00     0.017 A 
ENDBRANCH   1  12
TORSDOF 2
ENDMDL
MODEL 6
REMARK VINA RESULT:      -4.9      2.791      3.293
REMARK  2 active torsions:
REMARK  status: ('A' for Active; 'I' for Inactive)
REMARK       I    between atoms: C_1  and  N_2 
REMARK    1  A    between atoms: C_1  and  C_4 
REMARK    2  A    between atoms: N_2  and  C_7 
ROOT
HETATM    1  C   UNL     1      62.783   8.268   4.930  1.00  0.00     0.256 C 
HETATM    2  N   UNL     1      62.312   6.994   4.666  1.00  0.00    -0.323 N 
HETATM    3  O   UNL     1      63.447   8.595   5.911  1.00  0.00    -0.267 OA
HETATM    4  H   UNL     1      61.801   6.864   3.834  1.00  0.00     0.169 HD
ENDROOT
BRANCH   2   5
HETATM    5  C   UNL     1      62.508   5.861   5.494  1.00  0.00     0.037 A 
HETATM    6  C   UNL     1      63.741   5.233   5.657  1.00  0.00     0.046 A 
HETATM    7  C   UNL     1      63.814   4.103   6.450  1.00  0.00     0.090 A 
HETATM    8  N   UNL     1      62.756   3.563   7.089  1.00  0.00    -0.375 N 
HETATM    9  C   UNL     1      61.577   4.198   6.937  1.00  0.00     0.090 A 
ATOM     10  HN  UNL     1      62.844   2.720   7.656  1.00  0.00     0.164 HD
HETATM   11  C   UNL     1      61.407   5.346   6.176  1.00  0.00     0.046 A 
ENDBRANCH   2   5
BRANCH   1  12
HETATM   12  C   UNL     1      62.466   9.334   3.938  1.00  0.00     0.032 A 
HETATM   13  C   UNL     1      62.358   8.943   2.594  1.00  0.00     0.017 A 
HETATM   14  C   UNL     1      62.028   9.872   1.607  1.00  0.00     0.001 A 
HETATM   15  C   UNL     1      61.799  11.200   1.957  1.00  0.00     0.000 A 
HETATM   16  C   UNL     1      61.896  11.598   3.291  1.00  0.00     0.001 A 
HETATM   17  C   UNL     1      62.226  10.669   4.286  1.00  0.00     0.017 A 
ENDBRANCH   1  12
TORSDOF 2
ENDMDL
MODEL 7
REMARK VINA RESULT:      -4.8      2.013      2.909
REMARK  2 active torsions:
REMARK  status: ('A' for Active; 'I' for Inactive)
REMARK       I    between atoms: C_1  and  N_2 
REMARK    1  A    between atoms: C_1  and  C_4 
REMARK    2  A    between atoms: N_2  and  C_7 
ROOT
HETATM    1  C   UNL     1      63.318   8.403   4.507  1.00  0.00     0.256 C 
HETATM    2  N   UNL     1      64.311   7.443   4.421  1.00  0.00    -0.323 N 
HETATM    3  O   UNL     1      63.240   9.275   5.369  1.00  0.00    -0.267 OA
HETATM    4  H   UNL     1      64.263   6.809   3.670  1.00  0.00     0.169 HD
ENDROOT
BRANCH   2   5
HETATM    5  C   UNL     1      65.392   7.301   5.326  1.00  0.00     0.037 A 
HETATM    6  C   UNL     1      65.239   6.880   6.645  1.00  0.00     0.046 A 
HETATM    7  C   UNL     1      66.353   6.824   7.461  1.00  0.00     0.090 A 
HETATM    8  N   UNL     1      67.598   7.150   7.057  1.00  0.00    -0.375 N 
HETATM    9  C   UNL     1      67.729   7.533   5.771  1.00  0.00     0.090 A 
ATOM     10  HN  UNL     1      68.396   7.109   7.690  1.00  0.00     0.164 HD
HETATM   11  C   UNL     1      66.674   7.606   4.872  1.00  0.00     0.046 A 
ENDBRANCH   2   5
BRANCH   1  12
HETATM   12  C   UNL     1      62.257   8.386   3.460  1.00  0.00     0.032 A 
HETATM   13  C   UNL     1      62.549   9.027   2.245  1.00  0.00     0.017 A 
HETATM   14  C   UNL     1      61.626   9.025   1.199  1.00  0.00     0.001 A 
HETATM   15  C   UNL     1      60.403   8.379   1.359  1.00  0.00     0.000 A 
HETATM   16  C   UNL     1      60.106   7.732   2.559  1.00  0.00     0.001 A 
HETATM   17  C   UNL     1      61.029   7.730   3.611  1.00  0.00     0.017 A 
ENDBRANCH   1  12
TORSDOF 2
ENDMDL
MODEL 8
REMARK VINA RESULT:      -4.6      9.004      9.591
REMARK  2 active torsions:
REMARK  status: ('A' for Active; 'I' for Inactive)
REMARK       I    between atoms: C_1  and  N_2 
REMARK    1  A    between atoms: C_1  and  C_4 
REMARK    2  A    between atoms: N_2  and  C_7 
ROOT
HETATM    1  C   UNL     1      58.523   2.904   9.866  1.00  0.00     0.256 C 
HETATM    2  N   UNL     1      58.496   3.289  11.195  1.00  0.00    -0.323 N 
HETATM    3  O   UNL     1      58.080   1.850   9.418  1.00  0.00    -0.267 OA
HETATM    4  H   UNL     1      58.875   4.169  11.420  1.00  0.00     0.169 HD
ENDROOT
BRANCH   2   5
HETATM    5  C   UNL     1      57.963   2.518  12.259  1.00  0.00     0.037 A 
HETATM    6  C   UNL     1      56.600   2.408  12.519  1.00  0.00     0.046 A 
HETATM    7  C   UNL     1      56.188   1.671  13.614  1.00  0.00     0.090 A 
HETATM    8  N   UNL     1      57.030   1.038  14.455  1.00  0.00    -0.375 N 
HETATM    9  C   UNL     1      58.345   1.136  14.172  1.00  0.00     0.090 A 
ATOM     10  HN  UNL     1      56.691   0.513  15.261  1.00  0.00     0.164 HD
HETATM   11  C   UNL     1      58.854   1.840  13.089  1.00  0.00     0.046 A 
ENDBRANCH   2   5
BRANCH   1  12
HETATM   12  C   UNL     1      59.134   3.853   8.892  1.00  0.00     0.032 A 
HETATM   13  C   UNL     1      58.745   5.199   8.981  1.00  0.00     0.017 A 
HETATM   14  C   UNL     1      59.297   6.157   8.132  1.00  0.00     0.001 A 
HETATM   15  C   UNL     1      60.247   5.778   7.187  1.00  0.00     0.000 A 
HETATM   16  C   UNL     1      60.648   4.445   7.096  1.00  0.00     0.001 A 
HETATM   17  C   UNL     1      60.097   3.479   7.946  1.00  0.00     0.017 A 
ENDBRANCH   1  12
TORSDOF 2
ENDMDL
MODEL 9
REMARK VINA RESULT:      -4.4      4.360      4.683
REMARK  2 active torsions:
REMARK  status: ('A' for Active; 'I' for Inactive)
REMARK       I    between atoms: C_1  and  N_2 
REMARK    1  A    between atoms: C_1  and  C_4 
REMARK    2  A    between atoms: N_2  and  C_7 
ROOT
HETATM    1  C   UNL     1      61.954   7.451   4.168  1.00  0.00     0.256 C 
HETATM    2  N   UNL     1      60.738   7.032   4.682  1.00  0.00    -0.323 N 
HETATM    3  O   UNL     1      63.017   6.843   4.264  1.00  0.00    -0.267 OA
HETATM    4  H   UNL     1      59.957   7.610   4.523  1.00  0.00     0.169 HD
ENDROOT
BRANCH   2   5
HETATM    5  C   UNL     1      60.528   5.838   5.415  1.00  0.00     0.037 A 
HETATM    6  C   UNL     1      60.728   5.737   6.790  1.00  0.00     0.046 A 
HETATM    7  C   UNL     1      60.544   4.511   7.401  1.00  0.00     0.090 A 
HETATM    8  N   UNL     1      60.172   3.392   6.747  1.00  0.00    -0.375 N 
HETATM    9  C   UNL     1      59.960   3.516   5.421  1.00  0.00     0.090 A 
ATOM     10  HN  UNL     1      60.057   2.501   7.229  1.00  0.00     0.164 HD
HETATM   11  C   UNL     1      60.105   4.706   4.721  1.00  0.00     0.046 A 
ENDBRANCH   2   5
BRANCH   1  12
HETATM   12  C   UNL     1      61.975   8.745   3.429  1.00  0.00     0.032 A 
HETATM   13  C   UNL     1      62.013   8.679   2.027  1.00  0.00     0.017 A 
HETATM   14  C   UNL     1      61.998   9.843   1.259  1.00  0.00     0.001 A 
HETATM   15  C   UNL     1      61.940  11.084   1.887  1.00  0.00     0.000 A 
HETATM   16  C   UNL     1      61.894  11.162   3.279  1.00  0.00     0.001 A 
HETATM   17  C   UNL     1      61.908   9.997   4.055  1.00  0.00     0.017 A 
ENDBRANCH   1  12
TORSDOF 2
ENDMDL
