MODEL 1
REMARK VINA RESULT:      -5.6      0.000      0.000
REMARK  1 active torsions:
REMARK  status: ('A' for Active; 'I' for Inactive)
REMARK       I    between atoms: C_5  and  N_6 
REMARK    1  A    between atoms: N_6  and  C_8 
ROOT
HETATM    1  C   UNL     1      62.634   9.298   3.137  1.00  0.00     0.016 A 
HETATM    2  C   UNL     1      63.101   7.986   2.998  1.00  0.00    -0.042 A 
HETATM    3  C   UNL     1      61.779   9.905   2.080  1.00  0.00     0.160 C 
HETATM    4  C   UNL     1      62.942  10.033   4.285  1.00  0.00     0.018 A 
HETATM    5  C   UNL     1      63.835   7.408   4.049  1.00  0.00     0.037 A 
HETATM    6  C   UNL     1      64.127   8.122   5.216  1.00  0.00     0.035 A 
HETATM    7  O   UNL     1      61.417  11.074   2.162  1.00  0.00    -0.292 OA
HETATM    8  C   UNL     1      63.687   9.445   5.319  1.00  0.00     0.030 A 
HETATM    9  C   UNL     1      62.792   7.153   1.781  1.00  0.00     0.040 C 
HETATM   10  C   UNL     1      61.309   8.997   0.963  1.00  0.00     0.084 C 
HETATM   11  C   UNL     1      62.399   8.009   0.582  1.00  0.00     0.012 C 
ENDROOT
BRANCH   6  12
HETATM   12  N   UNL     1      64.838   7.574   6.311  1.00  0.00    -0.328 N 
HETATM   13  C   UNL     1      66.193   7.701   6.568  1.00  0.00     0.218 C 
HETATM   14  O   UNL     1      67.016   8.323   5.901  1.00  0.00    -0.274 OA
HETATM   15  C   UNL     1      66.625   6.966   7.811  1.00  0.00     0.117 C 
HETATM   16  H   UNL     1      64.314   7.049   6.957  1.00  0.00     0.169 HD
ENDBRANCH   6  12
TORSDOF 1
ENDMDL
MODEL 2
REMARK VINA RESULT:      -5.5      2.025      5.571
REMARK  1 active torsions:
REMARK  status: ('A' for Active; 'I' for Inactive)
REMARK       I    between atoms: C_5  and  N_6 
REMARK    1  A    between atoms: N_6  and  C_8 
ROOT
HETATM    1  C   UNL     1      65.288   7.882   4.921  1.00  0.00     0.016 A 
HETATM    2  C   UNL     1      65.250   6.881   3.943  1.00  0.00    -0.042 A 
HETATM    3  C   UNL     1      66.499   8.054   5.770  1.00  0.00     0.160 C 
HETATM    4  C   UNL     1      64.201   8.746   5.080  1.00  0.00     0.018 A 
HETATM    5  C   UNL     1      64.129   6.796   3.097  1.00  0.00     0.037 A 
HETATM    6  C   UNL     1      63.046   7.671   3.227  1.00  0.00     0.035 A 
HETATM    7  O   UNL     1      66.518   8.886   6.670  1.00  0.00    -0.292 OA
HETATM    8  C   UNL     1      63.085   8.639   4.236  1.00  0.00     0.030 A 
HETATM    9  C   UNL     1      66.398   5.929   3.730  1.00  0.00     0.040 C 
HETATM   10  C   UNL     1      67.717   7.229   5.414  1.00  0.00     0.084 C 
HETATM   11  C   UNL     1      67.308   5.841   4.950  1.00  0.00     0.012 C 
ENDROOT
BRANCH   6  12
HETATM   12  N   UNL     1      61.910   7.642   2.383  1.00  0.00    -0.328 N 
HETATM   13  C   UNL     1      61.662   8.463   1.295  1.00  0.00     0.218 C 
HETATM   14  O   UNL     1      62.389   9.352   0.861  1.00  0.00    -0.274 OA
HETATM   15  C   UNL     1      60.338   8.175   0.634  1.00  0.00     0.117 C 
HETATM   16  H   UNL     1      61.226   6.966   2.591  1.00  0.00     0.169 HD
ENDBRANCH   6  12
TORSDOF 1
ENDMDL
MODEL 3
REMARK VINA RESULT:      -5.4      2.962      5.997
REMARK  1 active torsions:
REMARK  status: ('A' for Active; 'I' for Inactive)
REMARK       I    between atoms: C_5  and  N_6 
REMARK    1  A    between atoms: N_6  and  C_8 
ROOT
HETATM    1  C   UNL     1      65.121   6.269   6.537  1.00  0.00     0.016 A 
HETATM    2  C   UNL     1      65.871   7.272   5.913  1.00  0.00    -0.042 A 
HETATM    3  C   UNL     1      65.802   5.203   7.322  1.00  0.00     0.160 C 
HETATM    4  C   UNL     1      63.725   6.284   6.453  1.00  0.00     0.018 A 
HETATM    5  C   UNL     1      65.199   8.315   5.250  1.00  0.00     0.037 A 
HETATM    6  C   UNL     1      63.803   8.358   5.182  1.00  0.00     0.035 A 
HETATM    7  O   UNL     1      65.158   4.285   7.819  1.00  0.00    -0.292 OA
HETATM    8  C   UNL     1      63.072   7.325   5.777  1.00  0.00     0.030 A 
HETATM    9  C   UNL     1      67.376   7.301   5.978  1.00  0.00     0.040 C 
HETATM   10  C   UNL     1      67.290   5.353   7.549  1.00  0.00     0.084 C 
HETATM   11  C   UNL     1      67.965   5.936   6.318  1.00  0.00     0.012 C 
ENDROOT
BRANCH   6  12
HETATM   12  N   UNL     1      63.082   9.400   4.551  1.00  0.00    -0.328 N 
HETATM   13  C   UNL     1      62.814  10.657   5.069  1.00  0.00     0.218 C 
HETATM   14  O   UNL     1      63.167  11.096   6.160  1.00  0.00    -0.274 OA
HETATM   15  C   UNL     1      61.995  11.512   4.136  1.00  0.00     0.117 C 
HETATM   16  H   UNL     1      62.735   9.212   3.650  1.00  0.00     0.169 HD
ENDBRANCH   6  12
TORSDOF 1
ENDMDL
MODEL 4
REMARK VINA RESULT:      -5.2      1.654      2.646
REMARK  1 active torsions:
REMARK  status: ('A' for Active; 'I' for Inactive)
REMARK       I    between atoms: C_5  and  N_6 
REMARK    1  A    between atoms: N_6  and  C_8 
ROOT
HETATM    1  C   UNL     1      63.488   7.923   3.224  1.00  0.00     0.016 A 
HETATM    2  C   UNL     1      63.691   8.738   4.344  1.00  0.00    -0.042 A 
HETATM    3  C   UNL     1      62.531   8.335   2.161  1.00  0.00     0.160 C 
HETATM    4  C   UNL     1      64.210   6.733   3.085  1.00  0.00     0.018 A 
HETATM    5  C   UNL     1      64.663   8.368   5.290  1.00  0.00     0.037 A 
HETATM    6  C   UNL     1      65.412   7.196   5.149  1.00  0.00     0.035 A 
HETATM    7  O   UNL     1      62.300   7.598   1.208  1.00  0.00    -0.292 OA
HETATM    8  C   UNL     1      65.166   6.373   4.046  1.00  0.00     0.030 A 
HETATM    9  C   UNL     1      62.941  10.031   4.536  1.00  0.00     0.040 C 
HETATM   10  C   UNL     1      61.937   9.723   2.263  1.00  0.00     0.084 C 
HETATM   11  C   UNL     1      61.658  10.081   3.714  1.00  0.00     0.012 C 
ENDROOT
BRANCH   6  12
HETATM   12  N   UNL     1      66.419   6.796   6.061  1.00  0.00    -0.328 N 
HETATM   13  C   UNL     1      66.283   6.631   7.429  1.00  0.00     0.218 C 
HETATM   14  O   UNL     1      65.261   6.787   8.093  1.00  0.00    -0.274 OA
HETATM   15  C   UNL     1      67.569   6.222   8.101  1.00  0.00     0.117 C 
HETATM   16  H   UNL     1      67.309   6.617   5.682  1.00  0.00     0.169 HD
ENDBRANCH   6  12
TORSDOF 1
ENDMDL
MODEL 5
REMARK VINA RESULT:      -5.1      1.975      2.361
REMARK  1 active torsions:
REMARK  status: ('A' for Active; 'I' for Inactive)
REMARK       I    between atoms: C_5  and  N_6 
REMARK    1  A    between atoms: N_6  and  C_8 
ROOT
HETATM    1  C   UNL     1      62.605   9.533   4.023  1.00  0.00     0.016 A 
HETATM    2  C   UNL     1      62.666   8.598   2.983  1.00  0.00    -0.042 A 
HETATM    3  C   UNL     1      62.113  10.913   3.761  1.00  0.00     0.160 C 
HETATM    4  C   UNL     1      62.976   9.163   5.319  1.00  0.00     0.018 A 
HETATM    5  C   UNL     1      63.053   7.278   3.275  1.00  0.00     0.037 A 
HETATM    6  C   UNL     1      63.400   6.886   4.572  1.00  0.00     0.035 A 
HETATM    7  O   UNL     1      62.115  11.757   4.651  1.00  0.00    -0.292 OA
HETATM    8  C   UNL     1      63.373   7.845   5.589  1.00  0.00     0.030 A 
HETATM    9  C   UNL     1      62.272   8.947   1.571  1.00  0.00     0.040 C 
HETATM   10  C   UNL     1      61.533  11.194   2.392  1.00  0.00     0.084 C 
HETATM   11  C   UNL     1      62.309  10.450   1.318  1.00  0.00     0.012 C 
ENDROOT
BRANCH   6  12
HETATM   12  N   UNL     1      63.769   5.565   4.918  1.00  0.00    -0.328 N 
HETATM   13  C   UNL     1      65.056   5.069   5.049  1.00  0.00     0.218 C 
HETATM   14  O   UNL     1      66.105   5.691   4.902  1.00  0.00    -0.274 OA
HETATM   15  C   UNL     1      65.087   3.604   5.403  1.00  0.00     0.117 C 
HETATM   16  H   UNL     1      63.035   4.932   5.084  1.00  0.00     0.169 HD
ENDBRANCH   6  12
TORSDOF 1
ENDMDL
MODEL 6
REMARK VINA RESULT:      -4.6      2.062      2.313
REMARK  1 active torsions:
REMARK  status: ('A' for Active; 'I' for Inactive)
REMARK       I    between atoms: C_5  and  N_6 
REMARK    1  A    between atoms: N_6  and  C_8 
ROOT
HETATM    1  C   UNL     1      61.318   7.501   3.674  1.00  0.00     0.016 A 
HETATM    2  C   UNL     1      62.441   8.227   3.260  1.00  0.00    -0.042 A 
HETATM    3  C   UNL     1      60.172   7.301   2.745  1.00  0.00     0.160 C 
HETATM    4  C   UNL     1      61.285   6.932   4.950  1.00  0.00     0.018 A 
HETATM    5  C   UNL     1      63.545   8.329   4.125  1.00  0.00     0.037 A 
HETATM    6  C   UNL     1      63.536   7.741   5.394  1.00  0.00     0.035 A 
HETATM    7  O   UNL     1      59.158   6.720   3.119  1.00  0.00    -0.292 OA
HETATM    8  C   UNL     1      62.390   7.055   5.805  1.00  0.00     0.030 A 
HETATM    9  C   UNL     1      62.526   8.855   1.892  1.00  0.00     0.040 C 
HETATM   10  C   UNL     1      60.351   7.759   1.314  1.00  0.00     0.084 C 
HETATM   11  C   UNL     1      61.152   9.050   1.261  1.00  0.00     0.012 C 
ENDROOT
BRANCH   6  12
HETATM   12  N   UNL     1      64.633   7.793   6.288  1.00  0.00    -0.328 N 
HETATM   13  C   UNL     1      65.643   6.854   6.418  1.00  0.00     0.218 C 
HETATM   14  O   UNL     1      65.776   5.819   5.772  1.00  0.00    -0.274 OA
HETATM   15  C   UNL     1      66.641   7.213   7.490  1.00  0.00     0.117 C 
HETATM   16  H   UNL     1      64.683   8.579   6.878  1.00  0.00     0.169 HD
ENDBRANCH   6  12
TORSDOF 1
ENDMDL
MODEL 7
REMARK VINA RESULT:      -4.4      4.792      5.364
REMARK  1 active torsions:
REMARK  status: ('A' for Active; 'I' for Inactive)
REMARK       I    between atoms: C_5  and  N_6 
REMARK    1  A    between atoms: N_6  and  C_8 
ROOT
HETATM    1  C   UNL     1      60.918   7.149   4.451  1.00  0.00     0.016 A 
HETATM    2  C   UNL     1      61.767   6.914   5.538  1.00  0.00    -0.042 A 
HETATM    3  C   UNL     1      61.398   7.935   3.281  1.00  0.00     0.160 C 
HETATM    4  C   UNL     1      59.625   6.618   4.446  1.00  0.00     0.018 A 
HETATM    5  C   UNL     1      61.318   6.097   6.591  1.00  0.00     0.037 A 
HETATM    6  C   UNL     1      60.038   5.536   6.586  1.00  0.00     0.035 A 
HETATM    7  O   UNL     1      60.641   8.200   2.353  1.00  0.00    -0.292 OA
HETATM    8  C   UNL     1      59.189   5.815   5.511  1.00  0.00     0.030 A 
HETATM    9  C   UNL     1      63.170   7.462   5.588  1.00  0.00     0.040 C 
HETATM   10  C   UNL     1      62.864   8.307   3.251  1.00  0.00     0.084 C 
HETATM   11  C   UNL     1      63.360   8.647   4.647  1.00  0.00     0.012 C 
ENDROOT
BRANCH   6  12
HETATM   12  N   UNL     1      59.552   4.686   7.609  1.00  0.00    -0.328 N 
HETATM   13  C   UNL     1      58.990   5.074   8.814  1.00  0.00     0.218 C 
HETATM   14  O   UNL     1      58.799   6.223   9.203  1.00  0.00    -0.274 OA
HETATM   15  C   UNL     1      58.604   3.905   9.684  1.00  0.00     0.117 C 
HETATM   16  H   UNL     1      59.620   3.718   7.446  1.00  0.00     0.169 HD
ENDBRANCH   6  12
TORSDOF 1
ENDMDL
MODEL 8
REMARK VINA RESULT:      -4.3      4.552      6.293
REMARK  1 active torsions:
REMARK  status: ('A' for Active; 'I' for Inactive)
REMARK       I    between atoms: C_5  and  N_6 
REMARK    1  A    between atoms: N_6  and  C_8 
ROOT
HETATM    1  C   UNL     1      61.948   6.997   5.622  1.00  0.00     0.016 A 
HETATM    2  C   UNL     1      61.327   7.309   4.406  1.00  0.00    -0.042 A 
HETATM    3  C   UNL     1      63.320   7.496   5.912  1.00  0.00     0.160 C 
HETATM    4  C   UNL     1      61.266   6.244   6.582  1.00  0.00     0.018 A 
HETATM    5  C   UNL     1      59.999   6.899   4.193  1.00  0.00     0.037 A 
HETATM    6  C   UNL     1      59.296   6.168   5.156  1.00  0.00     0.035 A 
HETATM    7  O   UNL     1      63.896   7.176   6.947  1.00  0.00    -0.292 OA
HETATM    8  C   UNL     1      59.946   5.831   6.347  1.00  0.00     0.030 A 
HETATM    9  C   UNL     1      62.019   8.122   3.343  1.00  0.00     0.040 C 
HETATM   10  C   UNL     1      63.924   8.474   4.928  1.00  0.00     0.084 C 
HETATM   11  C   UNL     1      63.535   8.112   3.504  1.00  0.00     0.012 C 
ENDROOT
BRANCH   6  12
HETATM   12  N   UNL     1      57.950   5.757   4.997  1.00  0.00    -0.328 N 
HETATM   13  C   UNL     1      56.823   6.395   5.490  1.00  0.00     0.218 C 
HETATM   14  O   UNL     1      56.790   7.438   6.137  1.00  0.00    -0.274 OA
HETATM   15  C   UNL     1      55.546   5.667   5.157  1.00  0.00     0.117 C 
HETATM   16  H   UNL     1      57.800   4.932   4.483  1.00  0.00     0.169 HD
ENDBRANCH   6  12
TORSDOF 1
ENDMDL
MODEL 9
REMARK VINA RESULT:      -4.3     10.180     12.084
REMARK  1 active torsions:
REMARK  status: ('A' for Active; 'I' for Inactive)
REMARK       I    between atoms: C_5  and  N_6 
REMARK    1  A    between atoms: N_6  and  C_8 
ROOT
HETATM    1  C   UNL     1      59.275   0.785  11.684  1.00  0.00     0.016 A 
HETATM    2  C   UNL     1      58.435   1.862  11.986  1.00  0.00    -0.042 A 
HETATM    3  C   UNL     1      59.577  -0.242  12.719  1.00  0.00     0.160 C 
HETATM    4  C   UNL     1      59.808   0.652  10.398  1.00  0.00     0.018 A 
HETATM    5  C   UNL     1      58.097   2.770  10.966  1.00  0.00     0.037 A 
HETATM    6  C   UNL     1      58.600   2.634   9.669  1.00  0.00     0.035 A 
HETATM    7  O   UNL     1      60.362  -1.155  12.483  1.00  0.00    -0.292 OA
HETATM    8  C   UNL     1      59.471   1.574   9.397  1.00  0.00     0.030 A 
HETATM    9  C   UNL     1      57.833   2.046  13.355  1.00  0.00     0.040 C 
HETATM   10  C   UNL     1      58.812  -0.159  14.021  1.00  0.00     0.084 C 
HETATM   11  C   UNL     1      58.605   1.290  14.430  1.00  0.00     0.012 C 
ENDROOT
BRANCH   6  12
HETATM   12  N   UNL     1      58.267   3.506   8.605  1.00  0.00    -0.328 N 
HETATM   13  C   UNL     1      58.377   4.887   8.597  1.00  0.00     0.218 C 
HETATM   14  O   UNL     1      58.797   5.599   9.506  1.00  0.00    -0.274 OA
HETATM   15  C   UNL     1      57.908   5.505   7.305  1.00  0.00     0.117 C 
HETATM   16  H   UNL     1      57.922   3.087   7.784  1.00  0.00     0.169 HD
ENDBRANCH   6  12
TORSDOF 1
ENDMDL
