MODEL 1
REMARK VINA RESULT:      -4.5      0.000      0.000
REMARK  7 active torsions:
REMARK  status: ('A' for Active; 'I' for Inactive)
REMARK    1  A    between atoms: N_1  and  C_6 
REMARK    2  A    between atoms: C_6  and  C_11 
REMARK    3  A    between atoms: O_9  and  C_10 
REMARK    4  A    between atoms: C_10  and  C_12 
REMARK    5  A    between atoms: C_11  and  C_14 
REMARK    6  A    between atoms: C_12  and  C_13 
REMARK    7  A    between atoms: C_13  and  C_14 
ROOT
HETATM    1  C   UNL     1      63.028   8.358   4.521  1.00  0.00     0.129 C 
ENDROOT
BRANCH   1   2
HETATM    2  N   UNL     1      62.547   9.001   3.302  1.00  0.00    -0.355 N 
HETATM    3  C   UNL     1      62.443   8.385   2.068  1.00  0.00     0.008 A 
HETATM    4  C   UNL     1      62.092   9.354   1.150  1.00  0.00     0.026 A 
HETATM    5  C   UNL     1      62.683   6.936   1.839  1.00  0.00     0.068 C 
HETATM    6  C   UNL     1      61.925  10.567   1.845  1.00  0.00     0.026 A 
HETATM    7  C   UNL     1      62.173  10.327   3.183  1.00  0.00     0.008 A 
HETATM    8  C   UNL     1      62.085  11.287   4.317  1.00  0.00     0.068 C 
ENDBRANCH   1   2
BRANCH   1   9
HETATM    9  C   UNL     1      64.508   8.629   4.792  1.00  0.00     0.020 C 
BRANCH   9  10
HETATM   10  C   UNL     1      65.377   7.417   4.437  1.00  0.00     0.002 C 
BRANCH  10  11
HETATM   11  C   UNL     1      66.766   7.536   5.072  1.00  0.00     0.002 C 
BRANCH  11  12
HETATM   12  C   UNL     1      66.705   8.141   6.474  1.00  0.00     0.026 C 
BRANCH  12  13
HETATM   13  C   UNL     1      66.542   7.060   7.537  1.00  0.00     0.164 C 
BRANCH  13  14
HETATM   14  O   UNL     1      65.169   6.903   7.863  1.00  0.00    -0.401 OA
HETATM   15  H   UNL     1      65.043   7.048   8.814  1.00  0.00     0.209 HD
ENDBRANCH  13  14
ENDBRANCH  12  13
ENDBRANCH  11  12
ENDBRANCH  10  11
ENDBRANCH   9  10
ENDBRANCH   1   9
TORSDOF 7
ENDMDL
MODEL 2
REMARK VINA RESULT:      -4.5      0.850      2.319
REMARK  7 active torsions:
REMARK  status: ('A' for Active; 'I' for Inactive)
REMARK    1  A    between atoms: N_1  and  C_6 
REMARK    2  A    between atoms: C_6  and  C_11 
REMARK    3  A    between atoms: O_9  and  C_10 
REMARK    4  A    between atoms: C_10  and  C_12 
REMARK    5  A    between atoms: C_11  and  C_14 
REMARK    6  A    between atoms: C_12  and  C_13 
REMARK    7  A    between atoms: C_13  and  C_14 
ROOT
HETATM    1  C   UNL     1      62.997   8.459   4.618  1.00  0.00     0.129 C 
ENDROOT
BRANCH   1   2
HETATM    2  N   UNL     1      62.577   9.217   3.443  1.00  0.00    -0.355 N 
HETATM    3  C   UNL     1      62.192  10.545   3.451  1.00  0.00     0.008 A 
HETATM    4  C   UNL     1      61.732  10.850   2.185  1.00  0.00     0.026 A 
HETATM    5  C   UNL     1      62.278  11.429   4.643  1.00  0.00     0.068 C 
HETATM    6  C   UNL     1      61.893   9.706   1.380  1.00  0.00     0.026 A 
HETATM    7  C   UNL     1      62.452   8.713   2.162  1.00  0.00     0.008 A 
HETATM    8  C   UNL     1      62.847   7.338   1.750  1.00  0.00     0.068 C 
ENDBRANCH   1   2
BRANCH   1   9
HETATM    9  C   UNL     1      64.482   8.633   4.938  1.00  0.00     0.020 C 
BRANCH   9  10
HETATM   10  C   UNL     1      65.303   7.422   4.479  1.00  0.00     0.002 C 
BRANCH  10  11
HETATM   11  C   UNL     1      66.744   7.513   4.991  1.00  0.00     0.002 C 
BRANCH  11  12
HETATM   12  C   UNL     1      66.998   6.564   6.161  1.00  0.00     0.026 C 
BRANCH  12  13
HETATM   13  C   UNL     1      66.779   7.264   7.499  1.00  0.00     0.164 C 
BRANCH  13  14
HETATM   14  O   UNL     1      66.987   8.661   7.355  1.00  0.00    -0.401 OA
HETATM   15  H   UNL     1      67.647   8.958   8.001  1.00  0.00     0.209 HD
ENDBRANCH  13  14
ENDBRANCH  12  13
ENDBRANCH  11  12
ENDBRANCH  10  11
ENDBRANCH   9  10
ENDBRANCH   1   9
TORSDOF 7
ENDMDL
MODEL 3
REMARK VINA RESULT:      -4.1      1.809      3.097
REMARK  7 active torsions:
REMARK  status: ('A' for Active; 'I' for Inactive)
REMARK    1  A    between atoms: N_1  and  C_6 
REMARK    2  A    between atoms: C_6  and  C_11 
REMARK    3  A    between atoms: O_9  and  C_10 
REMARK    4  A    between atoms: C_10  and  C_12 
REMARK    5  A    between atoms: C_11  and  C_14 
REMARK    6  A    between atoms: C_12  and  C_13 
REMARK    7  A    between atoms: C_13  and  C_14 
ROOT
HETATM    1  C   UNL     1      62.736   8.212   3.770  1.00  0.00     0.129 C 
ENDROOT
BRANCH   1   2
HETATM    2  N   UNL     1      62.420   9.538   3.250  1.00  0.00    -0.355 N 
HETATM    3  C   UNL     1      62.370  10.696   4.005  1.00  0.00     0.008 A 
HETATM    4  C   UNL     1      61.899  11.704   3.188  1.00  0.00     0.026 A 
HETATM    5  C   UNL     1      62.764  10.772   5.437  1.00  0.00     0.068 C 
HETATM    6  C   UNL     1      61.712  11.164   1.901  1.00  0.00     0.026 A 
HETATM    7  C   UNL     1      62.074   9.832   1.944  1.00  0.00     0.008 A 
HETATM    8  C   UNL     1      62.089   8.851   0.824  1.00  0.00     0.068 C 
ENDBRANCH   1   2
BRANCH   1   9
HETATM    9  C   UNL     1      61.494   7.431   4.202  1.00  0.00     0.020 C 
BRANCH   9  10
HETATM   10  C   UNL     1      61.816   5.953   4.452  1.00  0.00     0.002 C 
BRANCH  10  11
HETATM   11  C   UNL     1      63.328   5.731   4.544  1.00  0.00     0.002 C 
BRANCH  11  12
HETATM   12  C   UNL     1      63.758   5.283   5.940  1.00  0.00     0.026 C 
BRANCH  12  13
HETATM   13  C   UNL     1      64.566   6.366   6.645  1.00  0.00     0.164 C 
BRANCH  13  14
HETATM   14  O   UNL     1      63.720   7.451   6.998  1.00  0.00    -0.401 OA
HETATM   15  H   UNL     1      64.084   7.907   7.773  1.00  0.00     0.209 HD
ENDBRANCH  13  14
ENDBRANCH  12  13
ENDBRANCH  11  12
ENDBRANCH  10  11
ENDBRANCH   9  10
ENDBRANCH   1   9
TORSDOF 7
ENDMDL
MODEL 4
REMARK VINA RESULT:      -4.0      3.106      6.571
REMARK  7 active torsions:
REMARK  status: ('A' for Active; 'I' for Inactive)
REMARK    1  A    between atoms: N_1  and  C_6 
REMARK    2  A    between atoms: C_6  and  C_11 
REMARK    3  A    between atoms: O_9  and  C_10 
REMARK    4  A    between atoms: C_10  and  C_12 
REMARK    5  A    between atoms: C_11  and  C_14 
REMARK    6  A    between atoms: C_12  and  C_13 
REMARK    7  A    between atoms: C_13  and  C_14 
ROOT
HETATM    1  C   UNL     1      65.455   6.799   6.612  1.00  0.00     0.129 C 
ENDROOT
BRANCH   1   2
HETATM    2  N   UNL     1      66.565   5.913   6.952  1.00  0.00    -0.355 N 
HETATM    3  C   UNL     1      67.179   5.038   6.075  1.00  0.00     0.008 A 
HETATM    4  C   UNL     1      68.075   4.282   6.804  1.00  0.00     0.026 A 
HETATM    5  C   UNL     1      66.879   4.972   4.621  1.00  0.00     0.068 C 
HETATM    6  C   UNL     1      68.045   4.742   8.135  1.00  0.00     0.026 A 
HETATM    7  C   UNL     1      67.134   5.778   8.205  1.00  0.00     0.008 A 
HETATM    8  C   UNL     1      66.783   6.610   9.389  1.00  0.00     0.068 C 
ENDBRANCH   1   2
BRANCH   1   9
HETATM    9  C   UNL     1      65.909   8.081   5.915  1.00  0.00     0.020 C 
BRANCH   9  10
HETATM   10  C   UNL     1      64.942   8.489   4.798  1.00  0.00     0.002 C 
BRANCH  10  11
HETATM   11  C   UNL     1      63.506   8.573   5.322  1.00  0.00     0.002 C 
BRANCH  11  12
HETATM   12  C   UNL     1      62.885   9.948   5.076  1.00  0.00     0.026 C 
BRANCH  12  13
HETATM   13  C   UNL     1      62.155   9.993   3.738  1.00  0.00     0.164 C 
BRANCH  13  14
HETATM   14  O   UNL     1      61.401  11.193   3.637  1.00  0.00    -0.401 OA
HETATM   15  H   UNL     1      61.151  11.493   4.525  1.00  0.00     0.209 HD
ENDBRANCH  13  14
ENDBRANCH  12  13
ENDBRANCH  11  12
ENDBRANCH  10  11
ENDBRANCH   9  10
ENDBRANCH   1   9
TORSDOF 7
ENDMDL
MODEL 5
REMARK VINA RESULT:      -3.9      2.746      5.935
REMARK  7 active torsions:
REMARK  status: ('A' for Active; 'I' for Inactive)
REMARK    1  A    between atoms: N_1  and  C_6 
REMARK    2  A    between atoms: C_6  and  C_11 
REMARK    3  A    between atoms: O_9  and  C_10 
REMARK    4  A    between atoms: C_10  and  C_12 
REMARK    5  A    between atoms: C_11  and  C_14 
REMARK    6  A    between atoms: C_12  and  C_13 
REMARK    7  A    between atoms: C_13  and  C_14 
ROOT
HETATM    1  C   UNL     1      65.161   5.919   5.192  1.00  0.00     0.129 C 
ENDROOT
BRANCH   1   2
HETATM    2  N   UNL     1      65.804   5.900   6.501  1.00  0.00    -0.355 N 
HETATM    3  C   UNL     1      65.823   4.817   7.362  1.00  0.00     0.008 A 
HETATM    4  C   UNL     1      66.396   5.237   8.545  1.00  0.00     0.026 A 
HETATM    5  C   UNL     1      65.299   3.470   7.013  1.00  0.00     0.068 C 
HETATM    6  C   UNL     1      66.783   6.581   8.383  1.00  0.00     0.026 A 
HETATM    7  C   UNL     1      66.445   6.968   7.101  1.00  0.00     0.008 A 
HETATM    8  C   UNL     1      66.689   8.284   6.448  1.00  0.00     0.068 C 
ENDBRANCH   1   2
BRANCH   1   9
HETATM    9  C   UNL     1      63.672   6.262   5.265  1.00  0.00     0.020 C 
BRANCH   9  10
HETATM   10  C   UNL     1      63.350   7.545   4.491  1.00  0.00     0.002 C 
BRANCH  10  11
HETATM   11  C   UNL     1      63.425   8.769   5.408  1.00  0.00     0.002 C 
BRANCH  11  12
HETATM   12  C   UNL     1      62.847  10.019   4.745  1.00  0.00     0.026 C 
BRANCH  12  13
HETATM   13  C   UNL     1      62.941  11.229   5.668  1.00  0.00     0.164 C 
BRANCH  13  14
HETATM   14  O   UNL     1      64.250  11.325   6.210  1.00  0.00    -0.401 OA
HETATM   15  H   UNL     1      64.792  10.591   5.880  1.00  0.00     0.209 HD
ENDBRANCH  13  14
ENDBRANCH  12  13
ENDBRANCH  11  12
ENDBRANCH  10  11
ENDBRANCH   9  10
ENDBRANCH   1   9
TORSDOF 7
ENDMDL
MODEL 6
REMARK VINA RESULT:      -3.8     10.139     11.946
REMARK  7 active torsions:
REMARK  status: ('A' for Active; 'I' for Inactive)
REMARK    1  A    between atoms: N_1  and  C_6 
REMARK    2  A    between atoms: C_6  and  C_11 
REMARK    3  A    between atoms: O_9  and  C_10 
REMARK    4  A    between atoms: C_10  and  C_12 
REMARK    5  A    between atoms: C_11  and  C_14 
REMARK    6  A    between atoms: C_12  and  C_13 
REMARK    7  A    between atoms: C_13  and  C_14 
ROOT
HETATM    1  C   UNL     1      57.027   1.096  10.869  1.00  0.00     0.129 C 
ENDROOT
BRANCH   1   2
HETATM    2  N   UNL     1      57.889   1.239  12.038  1.00  0.00    -0.355 N 
HETATM    3  C   UNL     1      57.474   1.679  13.282  1.00  0.00     0.008 A 
HETATM    4  C   UNL     1      58.599   1.814  14.070  1.00  0.00     0.026 A 
HETATM    5  C   UNL     1      56.056   1.945  13.638  1.00  0.00     0.068 C 
HETATM    6  C   UNL     1      59.710   1.395  13.312  1.00  0.00     0.026 A 
HETATM    7  C   UNL     1      59.252   1.006  12.069  1.00  0.00     0.008 A 
HETATM    8  C   UNL     1      60.041   0.450  10.935  1.00  0.00     0.068 C 
ENDBRANCH   1   2
BRANCH   1   9
HETATM    9  C   UNL     1      56.704   2.433  10.201  1.00  0.00     0.020 C 
BRANCH   9  10
HETATM   10  C   UNL     1      57.755   2.806   9.149  1.00  0.00     0.002 C 
BRANCH  10  11
HETATM   11  C   UNL     1      58.652   3.941   9.652  1.00  0.00     0.002 C 
BRANCH  11  12
HETATM   12  C   UNL     1      59.250   4.752   8.503  1.00  0.00     0.026 C 
BRANCH  12  13
HETATM   13  C   UNL     1      58.714   6.180   8.496  1.00  0.00     0.164 C 
BRANCH  13  14
HETATM   14  O   UNL     1      58.608   6.665   9.827  1.00  0.00    -0.401 OA
HETATM   15  H   UNL     1      59.160   6.124  10.413  1.00  0.00     0.209 HD
ENDBRANCH  13  14
ENDBRANCH  12  13
ENDBRANCH  11  12
ENDBRANCH  10  11
ENDBRANCH   9  10
ENDBRANCH   1   9
TORSDOF 7
ENDMDL
MODEL 7
REMARK VINA RESULT:      -3.7      3.239      6.491
REMARK  7 active torsions:
REMARK  status: ('A' for Active; 'I' for Inactive)
REMARK    1  A    between atoms: N_1  and  C_6 
REMARK    2  A    between atoms: C_6  and  C_11 
REMARK    3  A    between atoms: O_9  and  C_10 
REMARK    4  A    between atoms: C_10  and  C_12 
REMARK    5  A    between atoms: C_11  and  C_14 
REMARK    6  A    between atoms: C_12  and  C_13 
REMARK    7  A    between atoms: C_13  and  C_14 
ROOT
HETATM    1  C   UNL     1      67.418   7.081   6.212  1.00  0.00     0.129 C 
ENDROOT
BRANCH   1   2
HETATM    2  N   UNL     1      67.592   5.676   6.569  1.00  0.00    -0.355 N 
HETATM    3  C   UNL     1      67.490   4.615   5.688  1.00  0.00     0.008 A 
HETATM    4  C   UNL     1      67.573   3.453   6.428  1.00  0.00     0.026 A 
HETATM    5  C   UNL     1      67.319   4.768   4.219  1.00  0.00     0.068 C 
HETATM    6  C   UNL     1      67.785   3.812   7.773  1.00  0.00     0.026 A 
HETATM    7  C   UNL     1      67.832   5.191   7.841  1.00  0.00     0.008 A 
HETATM    8  C   UNL     1      68.075   6.041   9.039  1.00  0.00     0.068 C 
ENDBRANCH   1   2
BRANCH   1   9
HETATM    9  C   UNL     1      65.955   7.524   6.235  1.00  0.00     0.020 C 
BRANCH   9  10
HETATM   10  C   UNL     1      65.468   7.935   4.840  1.00  0.00     0.002 C 
BRANCH  10  11
HETATM   11  C   UNL     1      63.944   8.081   4.815  1.00  0.00     0.002 C 
BRANCH  11  12
HETATM   12  C   UNL     1      63.236   6.755   5.094  1.00  0.00     0.026 C 
BRANCH  12  13
HETATM   13  C   UNL     1      62.153   6.919   6.154  1.00  0.00     0.164 C 
BRANCH  13  14
HETATM   14  O   UNL     1      62.462   8.019   6.999  1.00  0.00    -0.401 OA
HETATM   15  H   UNL     1      62.712   7.692   7.877  1.00  0.00     0.209 HD
ENDBRANCH  13  14
ENDBRANCH  12  13
ENDBRANCH  11  12
ENDBRANCH  10  11
ENDBRANCH   9  10
ENDBRANCH   1   9
TORSDOF 7
ENDMDL
MODEL 8
REMARK VINA RESULT:      -3.7      2.829      6.262
REMARK  7 active torsions:
REMARK  status: ('A' for Active; 'I' for Inactive)
REMARK    1  A    between atoms: N_1  and  C_6 
REMARK    2  A    between atoms: C_6  and  C_11 
REMARK    3  A    between atoms: O_9  and  C_10 
REMARK    4  A    between atoms: C_10  and  C_12 
REMARK    5  A    between atoms: C_11  and  C_14 
REMARK    6  A    between atoms: C_12  and  C_13 
REMARK    7  A    between atoms: C_13  and  C_14 
ROOT
HETATM    1  C   UNL     1      64.695   6.958   5.869  1.00  0.00     0.129 C 
ENDROOT
BRANCH   1   2
HETATM    2  N   UNL     1      65.842   6.059   5.951  1.00  0.00    -0.355 N 
HETATM    3  C   UNL     1      66.598   5.838   7.088  1.00  0.00     0.008 A 
HETATM    4  C   UNL     1      67.668   5.045   6.726  1.00  0.00     0.026 A 
HETATM    5  C   UNL     1      66.263   6.388   8.428  1.00  0.00     0.068 C 
HETATM    6  C   UNL     1      67.531   4.733   5.359  1.00  0.00     0.026 A 
HETATM    7  C   UNL     1      66.376   5.336   4.900  1.00  0.00     0.008 A 
HETATM    8  C   UNL     1      65.786   5.264   3.535  1.00  0.00     0.068 C 
ENDBRANCH   1   2
BRANCH   1   9
HETATM    9  C   UNL     1      65.081   8.380   5.461  1.00  0.00     0.020 C 
BRANCH   9  10
HETATM   10  C   UNL     1      63.948   9.075   4.697  1.00  0.00     0.002 C 
BRANCH  10  11
HETATM   11  C   UNL     1      62.989   8.048   4.089  1.00  0.00     0.002 C 
BRANCH  11  12
HETATM   12  C   UNL     1      61.725   8.703   3.533  1.00  0.00     0.026 C 
BRANCH  12  13
HETATM   13  C   UNL     1      62.030  10.069   2.927  1.00  0.00     0.164 C 
BRANCH  13  14
HETATM   14  O   UNL     1      61.327  11.081   3.633  1.00  0.00    -0.401 OA
HETATM   15  H   UNL     1      61.962  11.680   4.057  1.00  0.00     0.209 HD
ENDBRANCH  13  14
ENDBRANCH  12  13
ENDBRANCH  11  12
ENDBRANCH  10  11
ENDBRANCH   9  10
ENDBRANCH   1   9
TORSDOF 7
ENDMDL
MODEL 9
REMARK VINA RESULT:      -3.7      2.812      6.267
REMARK  7 active torsions:
REMARK  status: ('A' for Active; 'I' for Inactive)
REMARK    1  A    between atoms: N_1  and  C_6 
REMARK    2  A    between atoms: C_6  and  C_11 
REMARK    3  A    between atoms: O_9  and  C_10 
REMARK    4  A    between atoms: C_10  and  C_12 
REMARK    5  A    between atoms: C_11  and  C_14 
REMARK    6  A    between atoms: C_12  and  C_13 
REMARK    7  A    between atoms: C_13  and  C_14 
ROOT
HETATM    1  C   UNL     1      65.498   5.791   4.898  1.00  0.00     0.129 C 
ENDROOT
BRANCH   1   2
HETATM    2  N   UNL     1      65.817   5.909   6.317  1.00  0.00    -0.355 N 
HETATM    3  C   UNL     1      66.345   7.036   6.921  1.00  0.00     0.008 A 
HETATM    4  C   UNL     1      66.640   6.706   8.229  1.00  0.00     0.026 A 
HETATM    5  C   UNL     1      66.539   8.337   6.227  1.00  0.00     0.068 C 
HETATM    6  C   UNL     1      66.232   5.375   8.440  1.00  0.00     0.026 A 
HETATM    7  C   UNL     1      65.691   4.905   7.259  1.00  0.00     0.008 A 
HETATM    8  C   UNL     1      65.087   3.570   6.997  1.00  0.00     0.068 C 
ENDBRANCH   1   2
BRANCH   1   9
HETATM    9  C   UNL     1      64.053   6.177   4.579  1.00  0.00     0.020 C 
BRANCH   9  10
HETATM   10  C   UNL     1      63.987   7.373   3.623  1.00  0.00     0.002 C 
BRANCH  10  11
HETATM   11  C   UNL     1      62.711   8.187   3.854  1.00  0.00     0.002 C 
BRANCH  11  12
HETATM   12  C   UNL     1      62.895   9.248   4.938  1.00  0.00     0.026 C 
BRANCH  12  13
HETATM   13  C   UNL     1      62.397  10.611   4.469  1.00  0.00     0.164 C 
BRANCH  13  14
HETATM   14  O   UNL     1      61.190  10.461   3.737  1.00  0.00    -0.401 OA
HETATM   15  H   UNL     1      61.163  11.114   3.019  1.00  0.00     0.209 HD
ENDBRANCH  13  14
ENDBRANCH  12  13
ENDBRANCH  11  12
ENDBRANCH  10  11
ENDBRANCH   9  10
ENDBRANCH   1   9
TORSDOF 7
ENDMDL
