MODEL 1
REMARK VINA RESULT:      -3.5      0.000      0.000
REMARK  1 active torsions:
REMARK  status: ('A' for Active; 'I' for Inactive)
REMARK    1  A    between atoms: C_1  and  N_2 
ROOT
HETATM    1  N   UNL     1      62.038   9.807   3.493  1.00  0.00    -0.354 N 
HETATM    2  O   UNL     1      63.084   9.099   6.057  1.00  0.00    -0.388 OA
HETATM    3  C   UNL     1      62.264  10.826   4.530  1.00  0.00     0.151 C 
HETATM    4  C   UNL     1      61.781   8.476   4.068  1.00  0.00     0.151 C 
HETATM    5  C   UNL     1      63.379  10.382   5.478  1.00  0.00     0.187 C 
HETATM    6  C   UNL     1      62.914   8.104   5.032  1.00  0.00     0.187 C 
ENDROOT
BRANCH   1   7
HETATM    7  C   UNL     1      61.909  10.095   2.153  1.00  0.00     0.167 C 
HETATM    8  S   UNL     1      62.081   9.040   0.874  1.00  0.00    -0.041 SA
HETATM    9  N   UNL     1      61.622  11.392   1.861  1.00  0.00    -0.376 N 
HETATM   10  H   UNL     1      61.513  12.047   2.588  1.00  0.00     0.158 HD
HETATM   11  H   UNL     1      61.523  11.675   0.923  1.00  0.00     0.158 HD
ENDBRANCH   1   7
TORSDOF 1
ENDMDL
MODEL 2
REMARK VINA RESULT:      -3.4      2.755      3.860
REMARK  1 active torsions:
REMARK  status: ('A' for Active; 'I' for Inactive)
REMARK    1  A    between atoms: C_1  and  N_2 
ROOT
HETATM    1  N   UNL     1      62.728   9.498   3.915  1.00  0.00    -0.354 N 
HETATM    2  O   UNL     1      61.508   9.756   1.344  1.00  0.00    -0.388 OA
HETATM    3  C   UNL     1      62.359   8.312   3.125  1.00  0.00     0.151 C 
HETATM    4  C   UNL     1      61.885  10.662   3.598  1.00  0.00     0.151 C 
HETATM    5  C   UNL     1      62.372   8.643   1.633  1.00  0.00     0.187 C 
HETATM    6  C   UNL     1      61.912  10.921   2.086  1.00  0.00     0.187 C 
ENDROOT
BRANCH   1   7
HETATM    7  C   UNL     1      63.636   9.475   4.951  1.00  0.00     0.167 C 
HETATM    8  S   UNL     1      64.849   8.360   5.202  1.00  0.00    -0.041 SA
HETATM    9  N   UNL     1      63.502  10.473   5.864  1.00  0.00    -0.376 N 
HETATM   10  H   UNL     1      62.798  11.152   5.752  1.00  0.00     0.158 HD
HETATM   11  H   UNL     1      64.110  10.517   6.638  1.00  0.00     0.158 HD
ENDBRANCH   1   7
TORSDOF 1
ENDMDL
MODEL 3
REMARK VINA RESULT:      -3.4      5.974      6.843
REMARK  1 active torsions:
REMARK  status: ('A' for Active; 'I' for Inactive)
REMARK    1  A    between atoms: C_1  and  N_2 
ROOT
HETATM    1  N   UNL     1      66.296   6.531   7.528  1.00  0.00    -0.354 N 
HETATM    2  O   UNL     1      66.943   4.051   8.791  1.00  0.00    -0.388 OA
HETATM    3  C   UNL     1      66.948   6.497   8.847  1.00  0.00     0.151 C 
HETATM    4  C   UNL     1      65.488   5.326   7.275  1.00  0.00     0.151 C 
HETATM    5  C   UNL     1      67.764   5.212   9.003  1.00  0.00     0.187 C 
HETATM    6  C   UNL     1      66.352   4.075   7.480  1.00  0.00     0.187 C 
ENDROOT
BRANCH   1   7
HETATM    7  C   UNL     1      66.297   7.633   6.703  1.00  0.00     0.167 C 
HETATM    8  S   UNL     1      65.553   7.781   5.219  1.00  0.00    -0.041 SA
HETATM    9  N   UNL     1      67.000   8.703   7.162  1.00  0.00    -0.376 N 
HETATM   10  H   UNL     1      67.454   8.657   8.034  1.00  0.00     0.158 HD
HETATM   11  H   UNL     1      67.054   9.525   6.622  1.00  0.00     0.158 HD
ENDBRANCH   1   7
TORSDOF 1
ENDMDL
MODEL 4
REMARK VINA RESULT:      -3.4      1.980      2.470
REMARK  1 active torsions:
REMARK  status: ('A' for Active; 'I' for Inactive)
REMARK    1  A    between atoms: C_1  and  N_2 
ROOT
HETATM    1  N   UNL     1      62.184   9.022   3.784  1.00  0.00    -0.354 N 
HETATM    2  O   UNL     1      64.172  10.132   5.509  1.00  0.00    -0.388 OA
HETATM    3  C   UNL     1      63.526   8.425   3.881  1.00  0.00     0.151 C 
HETATM    4  C   UNL     1      62.191  10.461   4.092  1.00  0.00     0.151 C 
HETATM    5  C   UNL     1      64.139   8.719   5.251  1.00  0.00     0.187 C 
HETATM    6  C   UNL     1      62.848  10.692   5.459  1.00  0.00     0.187 C 
ENDROOT
BRANCH   1   7
HETATM    7  C   UNL     1      61.084   8.354   3.293  1.00  0.00     0.167 C 
HETATM    8  S   UNL     1      60.316   7.041   3.976  1.00  0.00    -0.041 SA
HETATM    9  N   UNL     1      60.594   8.825   2.116  1.00  0.00    -0.376 N 
HETATM   10  H   UNL     1      61.018   9.599   1.680  1.00  0.00     0.158 HD
HETATM   11  H   UNL     1      59.813   8.393   1.699  1.00  0.00     0.158 HD
ENDBRANCH   1   7
TORSDOF 1
ENDMDL
MODEL 5
REMARK VINA RESULT:      -3.3      5.283      6.468
REMARK  1 active torsions:
REMARK  status: ('A' for Active; 'I' for Inactive)
REMARK    1  A    between atoms: C_1  and  N_2 
ROOT
HETATM    1  N   UNL     1      65.425   6.204   7.134  1.00  0.00    -0.354 N 
HETATM    2  O   UNL     1      65.632   8.805   5.971  1.00  0.00    -0.388 OA
HETATM    3  C   UNL     1      64.244   6.886   6.581  1.00  0.00     0.151 C 
HETATM    4  C   UNL     1      66.450   7.154   7.596  1.00  0.00     0.151 C 
HETATM    5  C   UNL     1      64.662   7.864   5.482  1.00  0.00     0.187 C 
HETATM    6  C   UNL     1      66.800   8.126   6.462  1.00  0.00     0.187 C 
ENDROOT
BRANCH   1   7
HETATM    7  C   UNL     1      65.490   4.846   7.354  1.00  0.00     0.167 C 
HETATM    8  S   UNL     1      64.695   3.650   6.509  1.00  0.00    -0.041 SA
HETATM    9  N   UNL     1      66.286   4.462   8.388  1.00  0.00    -0.376 N 
HETATM   10  H   UNL     1      66.773   5.138   8.912  1.00  0.00     0.158 HD
HETATM   11  H   UNL     1      66.376   3.507   8.611  1.00  0.00     0.158 HD
ENDBRANCH   1   7
TORSDOF 1
ENDMDL
MODEL 6
REMARK VINA RESULT:      -3.3      4.482      5.322
REMARK  1 active torsions:
REMARK  status: ('A' for Active; 'I' for Inactive)
REMARK    1  A    between atoms: C_1  and  N_2 
ROOT
HETATM    1  N   UNL     1      65.147   7.424   6.237  1.00  0.00    -0.354 N 
HETATM    2  O   UNL     1      62.660   8.147   5.029  1.00  0.00    -0.388 OA
HETATM    3  C   UNL     1      65.104   8.252   5.021  1.00  0.00     0.151 C 
HETATM    4  C   UNL     1      63.971   6.545   6.353  1.00  0.00     0.151 C 
HETATM    5  C   UNL     1      63.790   9.032   4.956  1.00  0.00     0.187 C 
HETATM    6  C   UNL     1      62.690   7.381   6.246  1.00  0.00     0.187 C 
ENDROOT
BRANCH   1   7
HETATM    7  C   UNL     1      66.237   7.352   7.075  1.00  0.00     0.167 C 
HETATM    8  S   UNL     1      66.713   6.049   7.998  1.00  0.00    -0.041 SA
HETATM    9  N   UNL     1      66.986   8.484   7.154  1.00  0.00    -0.376 N 
HETATM   10  H   UNL     1      66.738   9.277   6.625  1.00  0.00     0.158 HD
HETATM   11  H   UNL     1      67.777   8.511   7.741  1.00  0.00     0.158 HD
ENDBRANCH   1   7
TORSDOF 1
ENDMDL
MODEL 7
REMARK VINA RESULT:      -3.2      2.504      3.472
REMARK  1 active torsions:
REMARK  status: ('A' for Active; 'I' for Inactive)
REMARK    1  A    between atoms: C_1  and  N_2 
ROOT
HETATM    1  N   UNL     1      62.649   8.941   4.473  1.00  0.00    -0.354 N 
HETATM    2  O   UNL     1      62.199  11.366   3.030  1.00  0.00    -0.388 OA
HETATM    3  C   UNL     1      63.037  10.244   5.036  1.00  0.00     0.151 C 
HETATM    4  C   UNL     1      62.646   8.949   3.000  1.00  0.00     0.151 C 
HETATM    5  C   UNL     1      62.151  11.353   4.467  1.00  0.00     0.187 C 
HETATM    6  C   UNL     1      61.770  10.102   2.494  1.00  0.00     0.187 C 
ENDROOT
BRANCH   1   7
HETATM    7  C   UNL     1      62.479   7.802   5.228  1.00  0.00     0.167 C 
HETATM    8  S   UNL     1      61.802   6.360   4.737  1.00  0.00    -0.041 SA
HETATM    9  N   UNL     1      62.905   7.888   6.516  1.00  0.00    -0.376 N 
HETATM   10  H   UNL     1      63.311   8.723   6.846  1.00  0.00     0.158 HD
HETATM   11  H   UNL     1      62.809   7.116   7.120  1.00  0.00     0.158 HD
ENDBRANCH   1   7
TORSDOF 1
ENDMDL
MODEL 8
REMARK VINA RESULT:      -3.1      4.925      5.855
REMARK  1 active torsions:
REMARK  status: ('A' for Active; 'I' for Inactive)
REMARK    1  A    between atoms: C_1  and  N_2 
ROOT
HETATM    1  N   UNL     1      66.058   6.802   5.975  1.00  0.00    -0.354 N 
HETATM    2  O   UNL     1      63.607   8.269   6.084  1.00  0.00    -0.388 OA
HETATM    3  C   UNL     1      64.997   6.441   6.930  1.00  0.00     0.151 C 
HETATM    4  C   UNL     1      66.019   8.230   5.615  1.00  0.00     0.151 C 
HETATM    5  C   UNL     1      63.630   6.864   6.389  1.00  0.00     0.187 C 
HETATM    6  C   UNL     1      64.617   8.597   5.114  1.00  0.00     0.187 C 
ENDROOT
BRANCH   1   7
HETATM    7  C   UNL     1      67.071   5.949   5.599  1.00  0.00     0.167 C 
HETATM    8  S   UNL     1      67.698   4.681   6.481  1.00  0.00    -0.041 SA
HETATM    9  N   UNL     1      67.614   6.193   4.377  1.00  0.00    -0.376 N 
HETATM   10  H   UNL     1      67.272   6.933   3.825  1.00  0.00     0.158 HD
HETATM   11  H   UNL     1      68.350   5.629   4.044  1.00  0.00     0.158 HD
ENDBRANCH   1   7
TORSDOF 1
ENDMDL
MODEL 9
REMARK VINA RESULT:      -3.1      2.638      3.236
REMARK  1 active torsions:
REMARK  status: ('A' for Active; 'I' for Inactive)
REMARK    1  A    between atoms: C_1  and  N_2 
ROOT
HETATM    1  N   UNL     1      63.228   8.465   4.927  1.00  0.00    -0.354 N 
HETATM    2  O   UNL     1      64.664   6.041   5.405  1.00  0.00    -0.388 OA
HETATM    3  C   UNL     1      62.883   7.586   6.057  1.00  0.00     0.151 C 
HETATM    4  C   UNL     1      63.843   7.724   3.813  1.00  0.00     0.151 C 
HETATM    5  C   UNL     1      64.109   6.787   6.502  1.00  0.00     0.187 C 
HETATM    6  C   UNL     1      65.042   6.918   4.330  1.00  0.00     0.187 C 
ENDROOT
BRANCH   1   7
HETATM    7  C   UNL     1      62.862   9.790   4.850  1.00  0.00     0.167 C 
HETATM    8  S   UNL     1      61.959  10.517   3.652  1.00  0.00    -0.041 SA
HETATM    9  N   UNL     1      63.307  10.577   5.864  1.00  0.00    -0.376 N 
HETATM   10  H   UNL     1      63.844  10.187   6.592  1.00  0.00     0.158 HD
HETATM   11  H   UNL     1      63.092  11.539   5.873  1.00  0.00     0.158 HD
ENDBRANCH   1   7
TORSDOF 1
ENDMDL
