MODEL 1
REMARK VINA RESULT:      -5.2      0.000      0.000
REMARK  3 active torsions:
REMARK  status: ('A' for Active; 'I' for Inactive)
REMARK    1  A    between atoms: C_1  and  C_2 
REMARK    2  A    between atoms: C_1  and  O_10 
REMARK    3  A    between atoms: O_10  and  C_12 
ROOT
HETATM    1  C   UNL     1      63.064   8.857   4.794  1.00  0.00     0.042 A 
HETATM    2  C   UNL     1      62.277  11.079   4.261  1.00  0.00     0.155 A 
HETATM    3  C   UNL     1      62.821  10.185   5.180  1.00  0.00     0.063 A 
HETATM    4  C   UNL     1      61.975  10.671   2.967  1.00  0.00     0.154 A 
HETATM    5  C   UNL     1      62.753   8.451   3.488  1.00  0.00     0.021 A 
HETATM    6  C   UNL     1      62.208   9.358   2.574  1.00  0.00     0.046 A 
HETATM    7  F   UNL     1      62.050  12.345   4.638  1.00  0.00    -0.203 F 
HETATM    8  F   UNL     1      61.454  11.539   2.089  1.00  0.00    -0.203 F 
ENDROOT
BRANCH   1   9
HETATM    9  C   UNL     1      63.647   7.853   5.727  1.00  0.00     0.293 C 
HETATM   10  O   UNL     1      63.117   7.524   6.776  1.00  0.00    -0.259 OA
BRANCH   9  11
HETATM   11  O   UNL     1      64.813   7.373   5.235  1.00  0.00    -0.318 OA
BRANCH  11  12
HETATM   12  C   UNL     1      66.012   8.017   5.692  1.00  0.00     0.174 C 
HETATM   13  C   UNL     1      67.183   7.693   4.782  1.00  0.00     0.034 C 
ENDBRANCH  11  12
ENDBRANCH   9  11
ENDBRANCH   1   9
TORSDOF 3
ENDMDL
MODEL 2
REMARK VINA RESULT:      -5.2      0.919      1.916
REMARK  3 active torsions:
REMARK  status: ('A' for Active; 'I' for Inactive)
REMARK    1  A    between atoms: C_1  and  C_2 
REMARK    2  A    between atoms: C_1  and  O_10 
REMARK    3  A    between atoms: O_10  and  C_12 
ROOT
HETATM    1  C   UNL     1      62.847   9.148   4.526  1.00  0.00     0.042 A 
HETATM    2  C   UNL     1      62.144   9.771   2.299  1.00  0.00     0.155 A 
HETATM    3  C   UNL     1      62.626   8.808   3.183  1.00  0.00     0.063 A 
HETATM    4  C   UNL     1      61.878  11.063   2.736  1.00  0.00     0.154 A 
HETATM    5  C   UNL     1      62.581  10.455   4.959  1.00  0.00     0.021 A 
HETATM    6  C   UNL     1      62.096  11.414   4.064  1.00  0.00     0.046 A 
HETATM    7  F   UNL     1      61.935   9.436   1.018  1.00  0.00    -0.203 F 
HETATM    8  F   UNL     1      61.412  11.984   1.880  1.00  0.00    -0.203 F 
ENDROOT
BRANCH   1   9
HETATM    9  C   UNL     1      63.358   8.164   5.521  1.00  0.00     0.293 C 
HETATM   10  O   UNL     1      62.854   7.997   6.620  1.00  0.00    -0.259 OA
BRANCH   9  11
HETATM   11  O   UNL     1      64.427   7.500   5.022  1.00  0.00    -0.318 OA
BRANCH  11  12
HETATM   12  C   UNL     1      65.718   8.052   5.321  1.00  0.00     0.174 C 
HETATM   13  C   UNL     1      66.815   7.289   4.599  1.00  0.00     0.034 C 
ENDBRANCH  11  12
ENDBRANCH   9  11
ENDBRANCH   1   9
TORSDOF 3
ENDMDL
MODEL 3
REMARK VINA RESULT:      -5.0      2.737      4.516
REMARK  3 active torsions:
REMARK  status: ('A' for Active; 'I' for Inactive)
REMARK    1  A    between atoms: C_1  and  C_2 
REMARK    2  A    between atoms: C_1  and  O_10 
REMARK    3  A    between atoms: O_10  and  C_12 
ROOT
HETATM    1  C   UNL     1      62.265   8.916   2.203  1.00  0.00     0.042 A 
HETATM    2  C   UNL     1      61.849  11.295   2.278  1.00  0.00     0.155 A 
HETATM    3  C   UNL     1      61.961  10.117   1.544  1.00  0.00     0.063 A 
HETATM    4  C   UNL     1      62.033  11.293   3.655  1.00  0.00     0.154 A 
HETATM    5  C   UNL     1      62.455   8.921   3.592  1.00  0.00     0.021 A 
HETATM    6  C   UNL     1      62.339  10.109   4.319  1.00  0.00     0.046 A 
HETATM    7  F   UNL     1      61.555  12.437   1.640  1.00  0.00    -0.203 F 
HETATM    8  F   UNL     1      61.921  12.431   4.355  1.00  0.00    -0.203 F 
ENDROOT
BRANCH   1   9
HETATM    9  C   UNL     1      62.396   7.622   1.476  1.00  0.00     0.293 C 
HETATM   10  O   UNL     1      63.266   6.801   1.718  1.00  0.00    -0.259 OA
BRANCH   9  11
HETATM   11  O   UNL     1      61.421   7.504   0.545  1.00  0.00    -0.318 OA
BRANCH  11  12
HETATM   12  C   UNL     1      60.186   6.918   0.984  1.00  0.00     0.174 C 
HETATM   13  C   UNL     1      59.025   7.871   0.765  1.00  0.00     0.034 C 
ENDBRANCH  11  12
ENDBRANCH   9  11
ENDBRANCH   1   9
TORSDOF 3
ENDMDL
MODEL 4
REMARK VINA RESULT:      -4.9      1.812      3.187
REMARK  3 active torsions:
REMARK  status: ('A' for Active; 'I' for Inactive)
REMARK    1  A    between atoms: C_1  and  C_2 
REMARK    2  A    between atoms: C_1  and  O_10 
REMARK    3  A    between atoms: O_10  and  C_12 
ROOT
HETATM    1  C   UNL     1      62.688   9.096   4.211  1.00  0.00     0.042 A 
HETATM    2  C   UNL     1      62.106   9.846   1.988  1.00  0.00     0.155 A 
HETATM    3  C   UNL     1      62.521   8.828   2.843  1.00  0.00     0.063 A 
HETATM    4  C   UNL     1      61.854  11.123   2.476  1.00  0.00     0.154 A 
HETATM    5  C   UNL     1      62.437  10.387   4.695  1.00  0.00     0.021 A 
HETATM    6  C   UNL     1      62.019  11.402   3.829  1.00  0.00     0.046 A 
HETATM    7  F   UNL     1      61.948   9.580   0.684  1.00  0.00    -0.203 F 
HETATM    8  F   UNL     1      61.453  12.097   1.647  1.00  0.00    -0.203 F 
ENDROOT
BRANCH   1   9
HETATM    9  C   UNL     1      63.126   8.050   5.177  1.00  0.00     0.293 C 
HETATM   10  O   UNL     1      63.891   8.269   6.102  1.00  0.00    -0.259 OA
BRANCH   9  11
HETATM   11  O   UNL     1      62.550   6.862   4.880  1.00  0.00    -0.318 OA
BRANCH  11  12
HETATM   12  C   UNL     1      61.443   6.466   5.704  1.00  0.00     0.174 C 
HETATM   13  C   UNL     1      60.170   6.350   4.883  1.00  0.00     0.034 C 
ENDBRANCH  11  12
ENDBRANCH   9  11
ENDBRANCH   1   9
TORSDOF 3
ENDMDL
MODEL 5
REMARK VINA RESULT:      -4.9      1.342      2.326
REMARK  3 active torsions:
REMARK  status: ('A' for Active; 'I' for Inactive)
REMARK    1  A    between atoms: C_1  and  C_2 
REMARK    2  A    between atoms: C_1  and  O_10 
REMARK    3  A    between atoms: O_10  and  C_12 
ROOT
HETATM    1  C   UNL     1      63.035   8.924   4.556  1.00  0.00     0.042 A 
HETATM    2  C   UNL     1      62.238  11.172   4.163  1.00  0.00     0.155 A 
HETATM    3  C   UNL     1      62.800  10.228   5.019  1.00  0.00     0.063 A 
HETATM    4  C   UNL     1      61.909  10.836   2.855  1.00  0.00     0.154 A 
HETATM    5  C   UNL     1      62.697   8.591   3.237  1.00  0.00     0.021 A 
HETATM    6  C   UNL     1      62.133   9.546   2.386  1.00  0.00     0.046 A 
HETATM    7  F   UNL     1      62.019  12.415   4.614  1.00  0.00    -0.203 F 
HETATM    8  F   UNL     1      61.370  11.750   2.037  1.00  0.00    -0.203 F 
ENDROOT
BRANCH   1   9
HETATM    9  C   UNL     1      63.637   7.870   5.420  1.00  0.00     0.293 C 
HETATM   10  O   UNL     1      64.521   8.091   6.231  1.00  0.00    -0.259 OA
BRANCH   9  11
HETATM   11  O   UNL     1      63.055   6.672   5.176  1.00  0.00    -0.318 OA
BRANCH  11  12
HETATM   12  C   UNL     1      62.093   6.221   6.142  1.00  0.00     0.174 C 
HETATM   13  C   UNL     1      60.693   6.226   5.555  1.00  0.00     0.034 C 
ENDBRANCH  11  12
ENDBRANCH   9  11
ENDBRANCH   1   9
TORSDOF 3
ENDMDL
MODEL 6
REMARK VINA RESULT:      -4.4      1.523      2.080
REMARK  3 active torsions:
REMARK  status: ('A' for Active; 'I' for Inactive)
REMARK    1  A    between atoms: C_1  and  C_2 
REMARK    2  A    between atoms: C_1  and  O_10 
REMARK    3  A    between atoms: O_10  and  C_12 
ROOT
HETATM    1  C   UNL     1      63.094   8.595   3.968  1.00  0.00     0.042 A 
HETATM    2  C   UNL     1      62.805  10.679   5.158  1.00  0.00     0.155 A 
HETATM    3  C   UNL     1      63.264   9.364   5.130  1.00  0.00     0.063 A 
HETATM    4  C   UNL     1      62.183  11.236   4.047  1.00  0.00     0.154 A 
HETATM    5  C   UNL     1      62.461   9.162   2.853  1.00  0.00     0.021 A 
HETATM    6  C   UNL     1      62.005  10.483   2.891  1.00  0.00     0.046 A 
HETATM    7  F   UNL     1      62.974  11.406   6.271  1.00  0.00    -0.203 F 
HETATM    8  F   UNL     1      61.746  12.503   4.081  1.00  0.00    -0.203 F 
ENDROOT
BRANCH   1   9
HETATM    9  C   UNL     1      63.565   7.185   3.873  1.00  0.00     0.293 C 
HETATM   10  O   UNL     1      64.053   6.706   2.862  1.00  0.00    -0.259 OA
BRANCH   9  11
HETATM   11  O   UNL     1      63.382   6.546   5.053  1.00  0.00    -0.318 OA
BRANCH  11  12
HETATM   12  C   UNL     1      64.530   5.886   5.607  1.00  0.00     0.174 C 
HETATM   13  C   UNL     1      65.056   6.636   6.817  1.00  0.00     0.034 C 
ENDBRANCH  11  12
ENDBRANCH   9  11
ENDBRANCH   1   9
TORSDOF 3
ENDMDL
MODEL 7
REMARK VINA RESULT:      -4.4      3.325      4.831
REMARK  3 active torsions:
REMARK  status: ('A' for Active; 'I' for Inactive)
REMARK    1  A    between atoms: C_1  and  C_2 
REMARK    2  A    between atoms: C_1  and  O_10 
REMARK    3  A    between atoms: O_10  and  C_12 
ROOT
HETATM    1  C   UNL     1      62.887   8.910   4.712  1.00  0.00     0.042 A 
HETATM    2  C   UNL     1      64.993   8.124   5.602  1.00  0.00     0.155 A 
HETATM    3  C   UNL     1      64.265   9.090   4.910  1.00  0.00     0.063 A 
HETATM    4  C   UNL     1      64.368   6.986   6.098  1.00  0.00     0.154 A 
HETATM    5  C   UNL     1      62.264   7.757   5.211  1.00  0.00     0.021 A 
HETATM    6  C   UNL     1      63.004   6.794   5.905  1.00  0.00     0.046 A 
HETATM    7  F   UNL     1      66.308   8.306   5.788  1.00  0.00    -0.203 F 
HETATM    8  F   UNL     1      65.075   6.063   6.765  1.00  0.00    -0.203 F 
ENDROOT
BRANCH   1   9
HETATM    9  C   UNL     1      62.053   9.906   3.983  1.00  0.00     0.293 C 
HETATM   10  O   UNL     1      61.931  11.067   4.338  1.00  0.00    -0.259 OA
BRANCH   9  11
HETATM   11  O   UNL     1      61.481   9.337   2.896  1.00  0.00    -0.318 OA
BRANCH  11  12
HETATM   12  C   UNL     1      61.889   9.850   1.619  1.00  0.00     0.174 C 
HETATM   13  C   UNL     1      62.182   8.719   0.648  1.00  0.00     0.034 C 
ENDBRANCH  11  12
ENDBRANCH   9  11
ENDBRANCH   1   9
TORSDOF 3
ENDMDL
MODEL 8
REMARK VINA RESULT:      -4.3      3.600      5.027
REMARK  3 active torsions:
REMARK  status: ('A' for Active; 'I' for Inactive)
REMARK    1  A    between atoms: C_1  and  C_2 
REMARK    2  A    between atoms: C_1  and  O_10 
REMARK    3  A    between atoms: O_10  and  C_12 
ROOT
HETATM    1  C   UNL     1      64.495   8.390   4.755  1.00  0.00     0.042 A 
HETATM    2  C   UNL     1      66.695   7.422   5.010  1.00  0.00     0.155 A 
HETATM    3  C   UNL     1      65.765   8.401   5.353  1.00  0.00     0.063 A 
HETATM    4  C   UNL     1      66.377   6.435   4.085  1.00  0.00     0.154 A 
HETATM    5  C   UNL     1      64.183   7.394   3.819  1.00  0.00     0.021 A 
HETATM    6  C   UNL     1      65.123   6.416   3.483  1.00  0.00     0.046 A 
HETATM    7  F   UNL     1      67.904   7.440   5.588  1.00  0.00    -0.203 F 
HETATM    8  F   UNL     1      67.277   5.496   3.762  1.00  0.00    -0.203 F 
ENDROOT
BRANCH   1   9
HETATM    9  C   UNL     1      63.455   9.406   5.081  1.00  0.00     0.293 C 
HETATM   10  O   UNL     1      63.640  10.333   5.852  1.00  0.00    -0.259 OA
BRANCH   9  11
HETATM   11  O   UNL     1      62.315   9.150   4.397  1.00  0.00    -0.318 OA
BRANCH  11  12
HETATM   12  C   UNL     1      61.779  10.232   3.622  1.00  0.00     0.174 C 
HETATM   13  C   UNL     1      61.958   9.977   2.135  1.00  0.00     0.034 C 
ENDBRANCH  11  12
ENDBRANCH   9  11
ENDBRANCH   1   9
TORSDOF 3
ENDMDL
MODEL 9
REMARK VINA RESULT:      -4.3      1.992      2.846
REMARK  3 active torsions:
REMARK  status: ('A' for Active; 'I' for Inactive)
REMARK    1  A    between atoms: C_1  and  C_2 
REMARK    2  A    between atoms: C_1  and  O_10 
REMARK    3  A    between atoms: O_10  and  C_12 
ROOT
HETATM    1  C   UNL     1      64.393   8.358   4.769  1.00  0.00     0.042 A 
HETATM    2  C   UNL     1      63.051   7.869   2.819  1.00  0.00     0.155 A 
HETATM    3  C   UNL     1      64.123   7.554   3.650  1.00  0.00     0.063 A 
HETATM    4  C   UNL     1      62.246   8.969   3.087  1.00  0.00     0.154 A 
HETATM    5  C   UNL     1      63.579   9.469   5.031  1.00  0.00     0.021 A 
HETATM    6  C   UNL     1      62.505   9.776   4.190  1.00  0.00     0.046 A 
HETATM    7  F   UNL     1      62.800   7.094   1.755  1.00  0.00    -0.203 F 
HETATM    8  F   UNL     1      61.215   9.264   2.283  1.00  0.00    -0.203 F 
ENDROOT
BRANCH   1   9
HETATM    9  C   UNL     1      65.522   8.073   5.698  1.00  0.00     0.293 C 
HETATM   10  O   UNL     1      66.046   8.923   6.398  1.00  0.00    -0.259 OA
BRANCH   9  11
HETATM   11  O   UNL     1      65.853   6.761   5.650  1.00  0.00    -0.318 OA
BRANCH  11  12
HETATM   12  C   UNL     1      67.247   6.460   5.493  1.00  0.00     0.174 C 
HETATM   13  C   UNL     1      67.808   5.813   6.748  1.00  0.00     0.034 C 
ENDBRANCH  11  12
ENDBRANCH   9  11
ENDBRANCH   1   9
TORSDOF 3
ENDMDL
