MODEL 1
REMARK VINA RESULT:      -5.1      0.000      0.000
REMARK  1 active torsions:
REMARK  status: ('A' for Active; 'I' for Inactive)
REMARK    1  A    between atoms: C_8  and  O_9 
ROOT
HETATM    1  C   UNL     1      62.902   8.465   3.148  1.00  0.00     0.056 A 
HETATM    2  C   UNL     1      62.260   9.383   2.284  1.00  0.00    -0.038 A 
HETATM    3  C   UNL     1      63.199   8.834   4.479  1.00  0.00    -0.038 A 
HETATM    4  N   UNL     1      63.536   6.095   2.283  1.00  0.00    -0.191 NA
HETATM    5  C   UNL     1      63.253   7.153   2.670  1.00  0.00     0.100 C 
HETATM    6  C   UNL     1      62.849  10.119   4.927  1.00  0.00     0.044 A 
HETATM    7  C   UNL     1      61.925  10.663   2.764  1.00  0.00     0.044 A 
HETATM    8  C   UNL     1      62.222  11.016   4.074  1.00  0.00     0.066 A 
HETATM    9  C   UNL     1      63.880   7.919   5.463  1.00  0.00     0.050 C 
HETATM   10  C   UNL     1      61.908   9.062   0.853  1.00  0.00     0.050 C 
ENDROOT
BRANCH   8  11
HETATM   11  O   UNL     1      61.911  12.246   4.571  1.00  0.00    -0.361 OA
HETATM   12  H   UNL     1      62.220  13.018   4.138  1.00  0.00     0.217 HD
ENDBRANCH   8  11
TORSDOF 1
ENDMDL
MODEL 2
REMARK VINA RESULT:      -5.1      0.072      2.638
REMARK  1 active torsions:
REMARK  status: ('A' for Active; 'I' for Inactive)
REMARK    1  A    between atoms: C_8  and  O_9 
ROOT
HETATM    1  C   UNL     1      62.938   8.461   3.169  1.00  0.00     0.056 A 
HETATM    2  C   UNL     1      63.275   8.822   4.496  1.00  0.00    -0.038 A 
HETATM    3  C   UNL     1      62.260   9.380   2.337  1.00  0.00    -0.038 A 
HETATM    4  N   UNL     1      63.568   6.106   2.265  1.00  0.00    -0.191 NA
HETATM    5  C   UNL     1      63.287   7.158   2.668  1.00  0.00     0.100 C 
HETATM    6  C   UNL     1      61.928  10.647   2.844  1.00  0.00     0.044 A 
HETATM    7  C   UNL     1      62.926  10.099   4.973  1.00  0.00     0.044 A 
HETATM    8  C   UNL     1      62.259  10.994   4.147  1.00  0.00     0.066 A 
HETATM    9  C   UNL     1      61.864   9.077   0.915  1.00  0.00     0.050 C 
HETATM   10  C   UNL     1      64.001   7.899   5.442  1.00  0.00     0.050 C 
ENDROOT
BRANCH   8  11
HETATM   11  O   UNL     1      61.907  12.238   4.577  1.00  0.00    -0.361 OA
HETATM   12  H   UNL     1      62.560  12.821   4.909  1.00  0.00     0.217 HD
ENDBRANCH   8  11
TORSDOF 1
ENDMDL
MODEL 3
REMARK VINA RESULT:      -4.9      2.281      3.222
REMARK  1 active torsions:
REMARK  status: ('A' for Active; 'I' for Inactive)
REMARK    1  A    between atoms: C_8  and  O_9 
ROOT
HETATM    1  C   UNL     1      63.704   8.778   4.380  1.00  0.00     0.056 A 
HETATM    2  C   UNL     1      63.538   7.766   3.405  1.00  0.00    -0.038 A 
HETATM    3  C   UNL     1      62.781   9.845   4.457  1.00  0.00    -0.038 A 
HETATM    4  N   UNL     1      65.711   8.673   6.032  1.00  0.00    -0.191 NA
HETATM    5  C   UNL     1      64.814   8.721   5.295  1.00  0.00     0.100 C 
HETATM    6  C   UNL     1      61.705   9.885   3.555  1.00  0.00     0.044 A 
HETATM    7  C   UNL     1      62.449   7.837   2.517  1.00  0.00     0.044 A 
HETATM    8  C   UNL     1      61.548   8.891   2.600  1.00  0.00     0.066 A 
HETATM    9  C   UNL     1      62.884  10.962   5.463  1.00  0.00     0.050 C 
HETATM   10  C   UNL     1      64.478   6.596   3.263  1.00  0.00     0.050 C 
ENDROOT
BRANCH   8  11
HETATM   11  O   UNL     1      60.483   8.990   1.756  1.00  0.00    -0.361 OA
HETATM   12  H   UNL     1      60.056   9.815   1.636  1.00  0.00     0.217 HD
ENDBRANCH   8  11
TORSDOF 1
ENDMDL
MODEL 4
REMARK VINA RESULT:      -4.8      2.795      3.583
REMARK  1 active torsions:
REMARK  status: ('A' for Active; 'I' for Inactive)
REMARK    1  A    between atoms: C_8  and  O_9 
ROOT
HETATM    1  C   UNL     1      62.640   9.619   3.690  1.00  0.00     0.056 A 
HETATM    2  C   UNL     1      62.111  10.245   2.536  1.00  0.00    -0.038 A 
HETATM    3  C   UNL     1      62.997   8.253   3.653  1.00  0.00    -0.038 A 
HETATM    4  N   UNL     1      62.957  10.987   5.879  1.00  0.00    -0.191 NA
HETATM    5  C   UNL     1      62.816  10.376   4.902  1.00  0.00     0.100 C 
HETATM    6  C   UNL     1      62.817   7.530   2.462  1.00  0.00     0.044 A 
HETATM    7  C   UNL     1      61.943   9.492   1.359  1.00  0.00     0.044 A 
HETATM    8  C   UNL     1      62.296   8.149   1.334  1.00  0.00     0.066 A 
HETATM    9  C   UNL     1      63.565   7.510   4.834  1.00  0.00     0.050 C 
HETATM   10  C   UNL     1      61.711  11.699   2.497  1.00  0.00     0.050 C 
ENDROOT
BRANCH   8  11
HETATM   11  O   UNL     1      62.146   7.392   0.211  1.00  0.00    -0.361 OA
HETATM   12  H   UNL     1      62.719   7.519  -0.519  1.00  0.00     0.217 HD
ENDBRANCH   8  11
TORSDOF 1
ENDMDL
MODEL 5
REMARK VINA RESULT:      -4.7      2.784      3.541
REMARK  1 active torsions:
REMARK  status: ('A' for Active; 'I' for Inactive)
REMARK    1  A    between atoms: C_8  and  O_9 
ROOT
HETATM    1  C   UNL     1      62.306   9.810   3.059  1.00  0.00     0.056 A 
HETATM    2  C   UNL     1      62.269   8.633   2.273  1.00  0.00    -0.038 A 
HETATM    3  C   UNL     1      62.677   9.740   4.420  1.00  0.00    -0.038 A 
HETATM    4  N   UNL     1      61.689  12.101   1.994  1.00  0.00    -0.191 NA
HETATM    5  C   UNL     1      61.965  11.078   2.471  1.00  0.00     0.100 C 
HETATM    6  C   UNL     1      63.005   8.493   4.978  1.00  0.00     0.044 A 
HETATM    7  C   UNL     1      62.603   7.400   2.863  1.00  0.00     0.044 A 
HETATM    8  C   UNL     1      62.966   7.342   4.203  1.00  0.00     0.066 A 
HETATM    9  C   UNL     1      62.741  10.942   5.327  1.00  0.00     0.050 C 
HETATM   10  C   UNL     1      61.887   8.627   0.815  1.00  0.00     0.050 C 
ENDROOT
BRANCH   8  11
HETATM   11  O   UNL     1      63.295   6.165   4.805  1.00  0.00    -0.361 OA
HETATM   12  H   UNL     1      63.937   6.152   5.487  1.00  0.00     0.217 HD
ENDBRANCH   8  11
TORSDOF 1
ENDMDL
MODEL 6
REMARK VINA RESULT:      -4.6      2.825      4.266
REMARK  1 active torsions:
REMARK  status: ('A' for Active; 'I' for Inactive)
REMARK    1  A    between atoms: C_8  and  O_9 
ROOT
HETATM    1  C   UNL     1      62.578   9.693   4.183  1.00  0.00     0.056 A 
HETATM    2  C   UNL     1      62.788   8.300   4.318  1.00  0.00    -0.038 A 
HETATM    3  C   UNL     1      62.065  10.218   2.976  1.00  0.00    -0.038 A 
HETATM    4  N   UNL     1      63.140  11.288   6.159  1.00  0.00    -0.191 NA
HETATM    5  C   UNL     1      62.889  10.577   5.276  1.00  0.00     0.100 C 
HETATM    6  C   UNL     1      61.769   9.341   1.919  1.00  0.00     0.044 A 
HETATM    7  C   UNL     1      62.481   7.450   3.239  1.00  0.00     0.044 A 
HETATM    8  C   UNL     1      61.978   7.976   2.056  1.00  0.00     0.066 A 
HETATM    9  C   UNL     1      61.813  11.686   2.748  1.00  0.00     0.050 C 
HETATM   10  C   UNL     1      63.328   7.665   5.574  1.00  0.00     0.050 C 
ENDROOT
BRANCH   8  11
HETATM   11  O   UNL     1      61.671   7.181   0.993  1.00  0.00    -0.361 OA
HETATM   12  H   UNL     1      62.317   6.599   0.642  1.00  0.00     0.217 HD
ENDBRANCH   8  11
TORSDOF 1
ENDMDL
MODEL 7
REMARK VINA RESULT:      -4.3      2.185      3.268
REMARK  1 active torsions:
REMARK  status: ('A' for Active; 'I' for Inactive)
REMARK    1  A    between atoms: C_8  and  O_9 
ROOT
HETATM    1  C   UNL     1      62.794   8.494   2.940  1.00  0.00     0.056 A 
HETATM    2  C   UNL     1      62.797   9.517   3.917  1.00  0.00    -0.038 A 
HETATM    3  C   UNL     1      63.605   7.349   3.111  1.00  0.00    -0.038 A 
HETATM    4  N   UNL     1      61.295   8.721   0.827  1.00  0.00    -0.191 NA
HETATM    5  C   UNL     1      61.965   8.618   1.770  1.00  0.00     0.100 C 
HETATM    6  C   UNL     1      64.409   7.245   4.259  1.00  0.00     0.044 A 
HETATM    7  C   UNL     1      63.614   9.381   5.055  1.00  0.00     0.044 A 
HETATM    8  C   UNL     1      64.408   8.253   5.213  1.00  0.00     0.066 A 
HETATM    9  C   UNL     1      63.663   6.215   2.120  1.00  0.00     0.050 C 
HETATM   10  C   UNL     1      61.957  10.764   3.808  1.00  0.00     0.050 C 
ENDROOT
BRANCH   8  11
HETATM   11  O   UNL     1      65.211   8.090   6.302  1.00  0.00    -0.361 OA
HETATM   12  H   UNL     1      65.301   7.244   6.695  1.00  0.00     0.217 HD
ENDBRANCH   8  11
TORSDOF 1
ENDMDL
MODEL 8
REMARK VINA RESULT:      -4.0      2.300      3.306
REMARK  1 active torsions:
REMARK  status: ('A' for Active; 'I' for Inactive)
REMARK    1  A    between atoms: C_8  and  O_9 
ROOT
HETATM    1  C   UNL     1      63.839   7.270   3.277  1.00  0.00     0.056 A 
HETATM    2  C   UNL     1      63.398   8.459   3.905  1.00  0.00    -0.038 A 
HETATM    3  C   UNL     1      65.022   6.635   3.716  1.00  0.00    -0.038 A 
HETATM    4  N   UNL     1      62.469   6.255   1.312  1.00  0.00    -0.191 NA
HETATM    5  C   UNL     1      63.082   6.708   2.190  1.00  0.00     0.100 C 
HETATM    6  C   UNL     1      65.748   7.199   4.778  1.00  0.00     0.044 A 
HETATM    7  C   UNL     1      64.149   8.998   4.965  1.00  0.00     0.044 A 
HETATM    8  C   UNL     1      65.312   8.366   5.389  1.00  0.00     0.066 A 
HETATM    9  C   UNL     1      65.562   5.369   3.104  1.00  0.00     0.050 C 
HETATM   10  C   UNL     1      62.145   9.192   3.495  1.00  0.00     0.050 C 
ENDROOT
BRANCH   8  11
HETATM   11  O   UNL     1      66.063   8.862   6.412  1.00  0.00    -0.361 OA
HETATM   12  H   UNL     1      66.177   9.787   6.504  1.00  0.00     0.217 HD
ENDBRANCH   8  11
TORSDOF 1
ENDMDL
MODEL 9
REMARK VINA RESULT:      -3.9      2.400      3.410
REMARK  1 active torsions:
REMARK  status: ('A' for Active; 'I' for Inactive)
REMARK    1  A    between atoms: C_8  and  O_9 
ROOT
HETATM    1  C   UNL     1      61.173   8.384   2.567  1.00  0.00     0.056 A 
HETATM    2  C   UNL     1      61.226   7.307   3.483  1.00  0.00    -0.038 A 
HETATM    3  C   UNL     1      61.869   9.583   2.843  1.00  0.00    -0.038 A 
HETATM    4  N   UNL     1      59.794   8.157   0.373  1.00  0.00    -0.191 NA
HETATM    5  C   UNL     1      60.411   8.260   1.353  1.00  0.00     0.100 C 
HETATM    6  C   UNL     1      62.608   9.686   4.034  1.00  0.00     0.044 A 
HETATM    7  C   UNL     1      61.974   7.445   4.667  1.00  0.00     0.044 A 
HETATM    8  C   UNL     1      62.654   8.627   4.929  1.00  0.00     0.066 A 
HETATM    9  C   UNL     1      61.866  10.776   1.924  1.00  0.00     0.050 C 
HETATM   10  C   UNL     1      60.514   5.997   3.257  1.00  0.00     0.050 C 
ENDROOT
BRANCH   8  11
HETATM   11  O   UNL     1      63.387   8.794   6.065  1.00  0.00    -0.361 OA
HETATM   12  H   UNL     1      64.063   8.181   6.280  1.00  0.00     0.217 HD
ENDBRANCH   8  11
TORSDOF 1
ENDMDL
