MODEL 1
REMARK VINA RESULT:      -5.7      0.000      0.000
REMARK  1 active torsions:
REMARK  status: ('A' for Active; 'I' for Inactive)
REMARK    1  A    between atoms: C_3  and  C_7 
ROOT
HETATM    1  N   UNL     1      62.879   8.030   6.177  1.00  0.00    -0.261 N 
ATOM      2  HN  UNL     1      61.901   8.210   6.405  1.00  0.00     0.194 HD
HETATM    3  C   UNL     1      63.492   8.399   5.098  1.00  0.00     0.052 A 
HETATM    4  C   UNL     1      64.910   7.971   5.051  1.00  0.00     0.173 A 
HETATM    5  O   UNL     1      63.817   7.326   6.992  1.00  0.00    -0.199 OA
HETATM    6  C   UNL     1      65.041   7.297   6.368  1.00  0.00     0.286 A 
HETATM    7  O   UNL     1      66.060   6.797   6.820  1.00  0.00    -0.263 OA
ENDROOT
BRANCH   3   8
HETATM    8  C   UNL     1      62.866   9.183   4.012  1.00  0.00    -0.011 A 
HETATM    9  C   UNL     1      62.442  10.492   4.269  1.00  0.00     0.013 A 
HETATM   10  C   UNL     1      61.879  11.258   3.247  1.00  0.00     0.001 A 
HETATM   11  C   UNL     1      61.736  10.721   1.968  1.00  0.00     0.000 A 
HETATM   12  C   UNL     1      62.150   9.415   1.710  1.00  0.00     0.001 A 
HETATM   13  C   UNL     1      62.714   8.644   2.729  1.00  0.00     0.013 A 
ENDBRANCH   3   8
TORSDOF 1
ENDMDL
MODEL 2
REMARK VINA RESULT:      -5.5      2.733      3.760
REMARK  1 active torsions:
REMARK  status: ('A' for Active; 'I' for Inactive)
REMARK    1  A    between atoms: C_3  and  C_7 
ROOT
HETATM    1  N   UNL     1      61.703  10.857   3.438  1.00  0.00    -0.261 N 
ATOM      2  HN  UNL     1      61.076  11.128   2.681  1.00  0.00     0.194 HD
HETATM    3  C   UNL     1      62.417   9.778   3.490  1.00  0.00     0.052 A 
HETATM    4  C   UNL     1      63.215   9.660   4.733  1.00  0.00     0.173 A 
HETATM    5  O   UNL     1      61.951  11.601   4.632  1.00  0.00    -0.199 OA
HETATM    6  C   UNL     1      62.866  10.935   5.411  1.00  0.00     0.286 A 
HETATM    7  O   UNL     1      63.311  11.325   6.479  1.00  0.00    -0.263 OA
ENDROOT
BRANCH   3   8
HETATM    8  C   UNL     1      62.460   8.757   2.422  1.00  0.00    -0.011 A 
HETATM    9  C   UNL     1      63.103   7.538   2.666  1.00  0.00     0.013 A 
HETATM   10  C   UNL     1      63.125   6.549   1.680  1.00  0.00     0.001 A 
HETATM   11  C   UNL     1      62.508   6.774   0.451  1.00  0.00     0.000 A 
HETATM   12  C   UNL     1      61.873   7.990   0.201  1.00  0.00     0.001 A 
HETATM   13  C   UNL     1      61.848   8.983   1.183  1.00  0.00     0.013 A 
ENDBRANCH   3   8
TORSDOF 1
ENDMDL
MODEL 3
REMARK VINA RESULT:      -5.4      0.682      1.553
REMARK  1 active torsions:
REMARK  status: ('A' for Active; 'I' for Inactive)
REMARK    1  A    between atoms: C_3  and  C_7 
ROOT
HETATM    1  N   UNL     1      63.505   7.616   6.411  1.00  0.00    -0.261 N 
ATOM      2  HN  UNL     1      62.511   7.605   6.644  1.00  0.00     0.194 HD
HETATM    3  C   UNL     1      64.036   8.155   5.360  1.00  0.00     0.052 A 
HETATM    4  C   UNL     1      65.508   7.989   5.295  1.00  0.00     0.173 A 
HETATM    5  O   UNL     1      64.557   7.040   7.186  1.00  0.00    -0.199 OA
HETATM    6  C   UNL     1      65.763   7.268   6.568  1.00  0.00     0.286 A 
HETATM    7  O   UNL     1      66.857   6.930   6.994  1.00  0.00    -0.263 OA
ENDROOT
BRANCH   3   8
HETATM    8  C   UNL     1      63.276   8.881   4.322  1.00  0.00    -0.011 A 
HETATM    9  C   UNL     1      63.070   8.277   3.075  1.00  0.00     0.013 A 
HETATM   10  C   UNL     1      62.326   8.934   2.094  1.00  0.00     0.001 A 
HETATM   11  C   UNL     1      61.787  10.194   2.352  1.00  0.00     0.000 A 
HETATM   12  C   UNL     1      61.996  10.802   3.588  1.00  0.00     0.001 A 
HETATM   13  C   UNL     1      62.740  10.149   4.574  1.00  0.00     0.013 A 
ENDBRANCH   3   8
TORSDOF 1
ENDMDL
MODEL 4
REMARK VINA RESULT:      -4.8      2.483      5.062
REMARK  1 active torsions:
REMARK  status: ('A' for Active; 'I' for Inactive)
REMARK    1  A    between atoms: C_3  and  C_7 
ROOT
HETATM    1  N   UNL     1      64.128   9.982   5.744  1.00  0.00    -0.261 N 
ATOM      2  HN  UNL     1      64.761  10.218   6.509  1.00  0.00     0.194 HD
HETATM    3  C   UNL     1      64.251   8.979   4.934  1.00  0.00     0.052 A 
HETATM    4  C   UNL     1      63.177   8.913   3.914  1.00  0.00     0.173 A 
HETATM    5  O   UNL     1      62.948  10.697   5.377  1.00  0.00    -0.199 OA
HETATM    6  C   UNL     1      62.342  10.074   4.313  1.00  0.00     0.286 A 
HETATM    7  O   UNL     1      61.297  10.422   3.785  1.00  0.00    -0.263 OA
ENDROOT
BRANCH   3   8
HETATM    8  C   UNL     1      65.336   7.978   5.006  1.00  0.00    -0.011 A 
HETATM    9  C   UNL     1      65.373   6.939   4.069  1.00  0.00     0.013 A 
HETATM   10  C   UNL     1      66.409   6.004   4.102  1.00  0.00     0.001 A 
HETATM   11  C   UNL     1      67.408   6.101   5.069  1.00  0.00     0.000 A 
HETATM   12  C   UNL     1      67.370   7.129   6.010  1.00  0.00     0.001 A 
HETATM   13  C   UNL     1      66.336   8.068   5.982  1.00  0.00     0.013 A 
ENDBRANCH   3   8
TORSDOF 1
ENDMDL
MODEL 5
REMARK VINA RESULT:      -4.7      1.839      2.394
REMARK  1 active torsions:
REMARK  status: ('A' for Active; 'I' for Inactive)
REMARK    1  A    between atoms: C_3  and  C_7 
ROOT
HETATM    1  N   UNL     1      63.158   9.890   4.909  1.00  0.00    -0.261 N 
ATOM      2  HN  UNL     1      62.433  10.606   4.967  1.00  0.00     0.194 HD
HETATM    3  C   UNL     1      63.163   8.871   4.110  1.00  0.00     0.052 A 
HETATM    4  C   UNL     1      64.349   7.998   4.278  1.00  0.00     0.173 A 
HETATM    5  O   UNL     1      64.349   9.833   5.696  1.00  0.00    -0.199 OA
HETATM    6  C   UNL     1      65.095   8.739   5.327  1.00  0.00     0.286 A 
HETATM    7  O   UNL     1      66.181   8.429   5.789  1.00  0.00    -0.263 OA
ENDROOT
BRANCH   3   8
HETATM    8  C   UNL     1      62.110   8.592   3.112  1.00  0.00    -0.011 A 
HETATM    9  C   UNL     1      62.313   8.967   1.778  1.00  0.00     0.013 A 
HETATM   10  C   UNL     1      61.343   8.682   0.816  1.00  0.00     0.001 A 
HETATM   11  C   UNL     1      60.169   8.024   1.180  1.00  0.00     0.000 A 
HETATM   12  C   UNL     1      59.960   7.655   2.508  1.00  0.00     0.001 A 
HETATM   13  C   UNL     1      60.926   7.938   3.475  1.00  0.00     0.013 A 
ENDBRANCH   3   8
TORSDOF 1
ENDMDL
MODEL 6
REMARK VINA RESULT:      -4.5      3.363      4.961
REMARK  1 active torsions:
REMARK  status: ('A' for Active; 'I' for Inactive)
REMARK    1  A    between atoms: C_3  and  C_7 
ROOT
HETATM    1  N   UNL     1      62.320  10.443   4.467  1.00  0.00    -0.261 N 
ATOM      2  HN  UNL     1      62.518  10.298   5.458  1.00  0.00     0.194 HD
HETATM    3  C   UNL     1      62.298   9.529   3.551  1.00  0.00     0.052 A 
HETATM    4  C   UNL     1      61.998  10.058   2.199  1.00  0.00     0.173 A 
HETATM    5  O   UNL     1      62.019  11.692   3.843  1.00  0.00    -0.199 OA
HETATM    6  C   UNL     1      61.793  11.497   2.502  1.00  0.00     0.286 A 
HETATM    7  O   UNL     1      61.482  12.362   1.699  1.00  0.00    -0.263 OA
ENDROOT
BRANCH   3   8
HETATM    8  C   UNL     1      62.532   8.092   3.804  1.00  0.00    -0.011 A 
HETATM    9  C   UNL     1      63.689   7.486   3.299  1.00  0.00     0.013 A 
HETATM   10  C   UNL     1      63.942   6.138   3.556  1.00  0.00     0.001 A 
HETATM   11  C   UNL     1      63.043   5.390   4.314  1.00  0.00     0.000 A 
HETATM   12  C   UNL     1      61.885   5.986   4.812  1.00  0.00     0.001 A 
HETATM   13  C   UNL     1      61.627   7.335   4.558  1.00  0.00     0.013 A 
ENDBRANCH   3   8
TORSDOF 1
ENDMDL
MODEL 7
REMARK VINA RESULT:      -4.3      2.876      4.736
REMARK  1 active torsions:
REMARK  status: ('A' for Active; 'I' for Inactive)
REMARK    1  A    between atoms: C_3  and  C_7 
ROOT
HETATM    1  N   UNL     1      62.373   8.984   3.444  1.00  0.00    -0.261 N 
ATOM      2  HN  UNL     1      62.169   8.184   2.845  1.00  0.00     0.194 HD
HETATM    3  C   UNL     1      63.337   9.069   4.304  1.00  0.00     0.052 A 
HETATM    4  C   UNL     1      63.359  10.356   5.038  1.00  0.00     0.173 A 
HETATM    5  O   UNL     1      61.644  10.212   3.484  1.00  0.00    -0.199 OA
HETATM    6  C   UNL     1      62.220  11.062   4.398  1.00  0.00     0.286 A 
HETATM    7  O   UNL     1      61.851  12.200   4.644  1.00  0.00    -0.263 OA
ENDROOT
BRANCH   3   8
HETATM    8  C   UNL     1      64.337   8.006   4.540  1.00  0.00    -0.011 A 
HETATM    9  C   UNL     1      65.343   8.212   5.492  1.00  0.00     0.013 A 
HETATM   10  C   UNL     1      66.276   7.207   5.751  1.00  0.00     0.001 A 
HETATM   11  C   UNL     1      66.210   5.996   5.062  1.00  0.00     0.000 A 
HETATM   12  C   UNL     1      65.215   5.791   4.107  1.00  0.00     0.001 A 
HETATM   13  C   UNL     1      64.279   6.793   3.844  1.00  0.00     0.013 A 
ENDBRANCH   3   8
TORSDOF 1
ENDMDL
MODEL 8
REMARK VINA RESULT:      -4.3      1.941      2.516
REMARK  1 active torsions:
REMARK  status: ('A' for Active; 'I' for Inactive)
REMARK    1  A    between atoms: C_3  and  C_7 
ROOT
HETATM    1  N   UNL     1      64.527   6.908   3.691  1.00  0.00    -0.261 N 
ATOM      2  HN  UNL     1      64.499   6.095   3.075  1.00  0.00     0.194 HD
HETATM    3  C   UNL     1      63.661   7.871   3.725  1.00  0.00     0.052 A 
HETATM    4  C   UNL     1      63.989   8.922   4.717  1.00  0.00     0.173 A 
HETATM    5  O   UNL     1      65.529   7.189   4.669  1.00  0.00    -0.199 OA
HETATM    6  C   UNL     1      65.226   8.361   5.318  1.00  0.00     0.286 A 
HETATM    7  O   UNL     1      65.869   8.858   6.230  1.00  0.00    -0.263 OA
ENDROOT
BRANCH   3   8
HETATM    8  C   UNL     1      62.452   7.932   2.878  1.00  0.00    -0.011 A 
HETATM    9  C   UNL     1      62.403   8.843   1.816  1.00  0.00     0.013 A 
HETATM   10  C   UNL     1      61.282   8.892   0.986  1.00  0.00     0.001 A 
HETATM   11  C   UNL     1      60.206   8.034   1.214  1.00  0.00     0.000 A 
HETATM   12  C   UNL     1      60.247   7.131   2.275  1.00  0.00     0.001 A 
HETATM   13  C   UNL     1      61.366   7.078   3.108  1.00  0.00     0.013 A 
ENDBRANCH   3   8
TORSDOF 1
ENDMDL
MODEL 9
REMARK VINA RESULT:      -4.3      1.937      2.637
REMARK  1 active torsions:
REMARK  status: ('A' for Active; 'I' for Inactive)
REMARK    1  A    between atoms: C_3  and  C_7 
ROOT
HETATM    1  N   UNL     1      63.665   6.668   4.170  1.00  0.00    -0.261 N 
ATOM      2  HN  UNL     1      64.453   6.828   3.542  1.00  0.00     0.194 HD
HETATM    3  C   UNL     1      62.631   7.436   4.308  1.00  0.00     0.052 A 
HETATM    4  C   UNL     1      61.662   6.942   5.315  1.00  0.00     0.173 A 
HETATM    5  O   UNL     1      63.505   5.558   5.055  1.00  0.00    -0.199 OA
HETATM    6  C   UNL     1      62.313   5.672   5.729  1.00  0.00     0.286 A 
HETATM    7  O   UNL     1      61.870   4.868   6.534  1.00  0.00    -0.263 OA
ENDROOT
BRANCH   3   8
HETATM    8  C   UNL     1      62.409   8.678   3.540  1.00  0.00    -0.011 A 
HETATM    9  C   UNL     1      62.360   8.620   2.142  1.00  0.00     0.013 A 
HETATM   10  C   UNL     1      62.117   9.778   1.401  1.00  0.00     0.001 A 
HETATM   11  C   UNL     1      61.926  10.997   2.052  1.00  0.00     0.000 A 
HETATM   12  C   UNL     1      61.982  11.061   3.443  1.00  0.00     0.001 A 
HETATM   13  C   UNL     1      62.224   9.905   4.189  1.00  0.00     0.013 A 
ENDBRANCH   3   8
TORSDOF 1
ENDMDL
