MODEL 1
REMARK VINA RESULT:      -4.9      0.000      0.000
REMARK  3 active torsions:
REMARK  status: ('A' for Active; 'I' for Inactive)
REMARK    1  A    between atoms: C_1  and  C_4 
REMARK    2  A    between atoms: S_2  and  C_4 
REMARK    3  A    between atoms: S_2  and  C_5 
ROOT
HETATM    1  C   UNL     1      62.961   8.676   4.779  1.00  0.00     0.001 A 
HETATM    2  C   UNL     1      62.085  10.728   3.072  1.00  0.00     0.034 A 
HETATM    3 CL   UNL     1      61.569  11.989   2.024  1.00  0.00    -0.084 Cl
HETATM    4  C   UNL     1      62.803   9.980   5.261  1.00  0.00     0.020 A 
HETATM    5  C   UNL     1      62.673   8.417   3.431  1.00  0.00     0.020 A 
HETATM    6  C   UNL     1      62.232   9.435   2.580  1.00  0.00     0.025 A 
HETATM    7  C   UNL     1      62.366  11.003   4.408  1.00  0.00     0.025 A 
ENDROOT
BRANCH   1   8
HETATM    8  S   UNL     1      63.611   7.319   5.741  1.00  0.00    -0.119 SA
BRANCH   8   9
HETATM    9  C   UNL     1      65.285   7.072   5.058  1.00  0.00     0.192 C 
BRANCH   9  10
HETATM   10  C   UNL     1      66.217   8.167   5.533  1.00  0.00     0.182 C 
HETATM   11  O   UNL     1      66.080   8.924   6.479  1.00  0.00    -0.647 OA
HETATM   12  O   UNL     1      67.360   8.210   4.812  1.00  0.00    -0.647 OA
ENDBRANCH   9  10
ENDBRANCH   8   9
ENDBRANCH   1   8
TORSDOF 3
ENDMDL
MODEL 2
REMARK VINA RESULT:      -4.7      0.799      1.705
REMARK  3 active torsions:
REMARK  status: ('A' for Active; 'I' for Inactive)
REMARK    1  A    between atoms: C_1  and  C_4 
REMARK    2  A    between atoms: S_2  and  C_4 
REMARK    3  A    between atoms: S_2  and  C_5 
ROOT
HETATM    1  C   UNL     1      62.739   8.461   4.489  1.00  0.00     0.001 A 
HETATM    2  C   UNL     1      62.044  10.677   2.910  1.00  0.00     0.034 A 
HETATM    3 CL   UNL     1      61.598  12.030   1.946  1.00  0.00    -0.084 Cl
HETATM    4  C   UNL     1      62.402   8.293   3.142  1.00  0.00     0.020 A 
HETATM    5  C   UNL     1      62.722   9.754   5.032  1.00  0.00     0.020 A 
HETATM    6  C   UNL     1      62.382  10.860   4.247  1.00  0.00     0.025 A 
HETATM    7  C   UNL     1      62.056   9.400   2.354  1.00  0.00     0.025 A 
ENDROOT
BRANCH   1   8
HETATM    8  S   UNL     1      63.092   7.118   5.613  1.00  0.00    -0.119 SA
BRANCH   8   9
HETATM    9  C   UNL     1      64.893   6.878   5.442  1.00  0.00     0.192 C 
BRANCH   9  10
HETATM   10  C   UNL     1      65.629   7.586   6.560  1.00  0.00     0.182 C 
HETATM   11  O   UNL     1      65.954   7.150   7.651  1.00  0.00    -0.647 OA
HETATM   12  O   UNL     1      66.006   8.836   6.209  1.00  0.00    -0.647 OA
ENDBRANCH   9  10
ENDBRANCH   8   9
ENDBRANCH   1   8
TORSDOF 3
ENDMDL
MODEL 3
REMARK VINA RESULT:      -4.3      2.089      2.284
REMARK  3 active torsions:
REMARK  status: ('A' for Active; 'I' for Inactive)
REMARK    1  A    between atoms: C_1  and  C_4 
REMARK    2  A    between atoms: S_2  and  C_4 
REMARK    3  A    between atoms: S_2  and  C_5 
ROOT
HETATM    1  C   UNL     1      62.693   8.025   3.191  1.00  0.00     0.001 A 
HETATM    2  C   UNL     1      61.959  10.604   2.354  1.00  0.00     0.034 A 
HETATM    3 CL   UNL     1      61.530  12.188   1.842  1.00  0.00    -0.084 Cl
HETATM    4  C   UNL     1      62.541   9.056   4.124  1.00  0.00     0.020 A 
HETATM    5  C   UNL     1      62.472   8.306   1.834  1.00  0.00     0.020 A 
HETATM    6  C   UNL     1      62.102   9.587   1.415  1.00  0.00     0.025 A 
HETATM    7  C   UNL     1      62.174  10.343   3.705  1.00  0.00     0.025 A 
ENDROOT
BRANCH   1   8
HETATM    8  S   UNL     1      63.259   6.379   3.593  1.00  0.00    -0.119 SA
BRANCH   8   9
HETATM    9  C   UNL     1      62.600   6.096   5.270  1.00  0.00     0.192 C 
BRANCH   9  10
HETATM   10  C   UNL     1      63.666   6.367   6.310  1.00  0.00     0.182 C 
HETATM   11  O   UNL     1      63.836   7.371   6.980  1.00  0.00    -0.647 OA
HETATM   12  O   UNL     1      64.455   5.289   6.523  1.00  0.00    -0.647 OA
ENDBRANCH   9  10
ENDBRANCH   8   9
ENDBRANCH   1   8
TORSDOF 3
ENDMDL
MODEL 4
REMARK VINA RESULT:      -4.2      4.039      5.679
REMARK  3 active torsions:
REMARK  status: ('A' for Active; 'I' for Inactive)
REMARK    1  A    between atoms: C_1  and  C_4 
REMARK    2  A    between atoms: S_2  and  C_4 
REMARK    3  A    between atoms: S_2  and  C_5 
ROOT
HETATM    1  C   UNL     1      64.725   7.767   5.311  1.00  0.00     0.001 A 
HETATM    2  C   UNL     1      66.400   6.977   7.423  1.00  0.00     0.034 A 
HETATM    3 CL   UNL     1      67.420   6.512   8.726  1.00  0.00    -0.084 Cl
HETATM    4  C   UNL     1      66.024   8.275   5.413  1.00  0.00     0.020 A 
HETATM    5  C   UNL     1      64.279   6.858   6.282  1.00  0.00     0.020 A 
HETATM    6  C   UNL     1      65.113   6.459   7.331  1.00  0.00     0.025 A 
HETATM    7  C   UNL     1      66.860   7.880   6.468  1.00  0.00     0.025 A 
ENDROOT
BRANCH   1   8
HETATM    8  S   UNL     1      63.538   8.277   4.077  1.00  0.00    -0.119 SA
BRANCH   8   9
HETATM    9  C   UNL     1      62.782   9.771   4.801  1.00  0.00     0.192 C 
BRANCH   9  10
HETATM   10  C   UNL     1      62.149  10.620   3.719  1.00  0.00     0.182 C 
HETATM   11  O   UNL     1      61.731  10.273   2.628  1.00  0.00    -0.647 OA
HETATM   12  O   UNL     1      61.994  11.906   4.107  1.00  0.00    -0.647 OA
ENDBRANCH   9  10
ENDBRANCH   8   9
ENDBRANCH   1   8
TORSDOF 3
ENDMDL
MODEL 5
REMARK VINA RESULT:      -4.0      3.031      3.355
REMARK  3 active torsions:
REMARK  status: ('A' for Active; 'I' for Inactive)
REMARK    1  A    between atoms: C_1  and  C_4 
REMARK    2  A    between atoms: S_2  and  C_4 
REMARK    3  A    between atoms: S_2  and  C_5 
ROOT
HETATM    1  C   UNL     1      62.835   8.628   4.854  1.00  0.00     0.001 A 
HETATM    2  C   UNL     1      62.074  10.680   3.095  1.00  0.00     0.034 A 
HETATM    3 CL   UNL     1      61.628  11.942   2.015  1.00  0.00    -0.084 Cl
HETATM    4  C   UNL     1      62.754   9.950   5.302  1.00  0.00     0.020 A 
HETATM    5  C   UNL     1      62.530   8.350   3.514  1.00  0.00     0.020 A 
HETATM    6  C   UNL     1      62.145   9.369   2.637  1.00  0.00     0.025 A 
HETATM    7  C   UNL     1      62.373  10.974   4.423  1.00  0.00     0.025 A 
ENDROOT
BRANCH   1   8
HETATM    8  S   UNL     1      63.410   7.261   5.851  1.00  0.00    -0.119 SA
BRANCH   8   9
HETATM    9  C   UNL     1      62.265   5.906   5.423  1.00  0.00     0.192 C 
BRANCH   9  10
HETATM   10  C   UNL     1      61.366   5.582   6.597  1.00  0.00     0.182 C 
HETATM   11  O   UNL     1      60.731   6.348   7.302  1.00  0.00    -0.647 OA
HETATM   12  O   UNL     1      61.242   4.249   6.790  1.00  0.00    -0.647 OA
ENDBRANCH   9  10
ENDBRANCH   8   9
ENDBRANCH   1   8
TORSDOF 3
ENDMDL
MODEL 6
REMARK VINA RESULT:      -3.9      4.631      5.665
REMARK  3 active torsions:
REMARK  status: ('A' for Active; 'I' for Inactive)
REMARK    1  A    between atoms: C_1  and  C_4 
REMARK    2  A    between atoms: S_2  and  C_4 
REMARK    3  A    between atoms: S_2  and  C_5 
ROOT
HETATM    1  C   UNL     1      61.836   8.640   2.294  1.00  0.00     0.001 A 
HETATM    2  C   UNL     1      62.545  10.299   4.447  1.00  0.00     0.034 A 
HETATM    3 CL   UNL     1      63.000  11.315   5.757  1.00  0.00    -0.084 Cl
HETATM    4  C   UNL     1      62.442   8.102   3.433  1.00  0.00     0.020 A 
HETATM    5  C   UNL     1      61.591  10.021   2.250  1.00  0.00     0.020 A 
HETATM    6  C   UNL     1      61.938  10.849   3.322  1.00  0.00     0.025 A 
HETATM    7  C   UNL     1      62.796   8.931   4.508  1.00  0.00     0.025 A 
ENDROOT
BRANCH   1   8
HETATM    8  S   UNL     1      61.440   7.703   0.825  1.00  0.00    -0.119 SA
BRANCH   8   9
HETATM    9  C   UNL     1      59.742   8.235   0.422  1.00  0.00     0.192 C 
BRANCH   9  10
HETATM   10  C   UNL     1      58.732   7.371   1.146  1.00  0.00     0.182 C 
HETATM   11  O   UNL     1      57.519   7.486   1.180  1.00  0.00    -0.647 OA
HETATM   12  O   UNL     1      59.312   6.313   1.758  1.00  0.00    -0.647 OA
ENDBRANCH   9  10
ENDBRANCH   8   9
ENDBRANCH   1   8
TORSDOF 3
ENDMDL
MODEL 7
REMARK VINA RESULT:      -3.9      3.429      4.447
REMARK  3 active torsions:
REMARK  status: ('A' for Active; 'I' for Inactive)
REMARK    1  A    between atoms: C_1  and  C_4 
REMARK    2  A    between atoms: S_2  and  C_4 
REMARK    3  A    between atoms: S_2  and  C_5 
ROOT
HETATM    1  C   UNL     1      61.034   8.362   2.499  1.00  0.00     0.001 A 
HETATM    2  C   UNL     1      58.522   7.432   1.655  1.00  0.00     0.034 A 
HETATM    3 CL   UNL     1      56.993   6.845   1.130  1.00  0.00    -0.084 Cl
HETATM    4  C   UNL     1      60.638   8.504   1.165  1.00  0.00     0.020 A 
HETATM    5  C   UNL     1      60.153   7.748   3.402  1.00  0.00     0.020 A 
HETATM    6  C   UNL     1      58.899   7.289   2.986  1.00  0.00     0.025 A 
HETATM    7  C   UNL     1      59.383   8.040   0.745  1.00  0.00     0.025 A 
ENDROOT
BRANCH   1   8
HETATM    8  S   UNL     1      62.644   8.817   3.125  1.00  0.00    -0.119 SA
BRANCH   8   9
HETATM    9  C   UNL     1      62.291  10.218   4.239  1.00  0.00     0.192 C 
BRANCH   9  10
HETATM   10  C   UNL     1      63.321  10.286   5.347  1.00  0.00     0.182 C 
HETATM   11  O   UNL     1      64.367   9.668   5.450  1.00  0.00    -0.647 OA
HETATM   12  O   UNL     1      63.012  11.221   6.273  1.00  0.00    -0.647 OA
ENDBRANCH   9  10
ENDBRANCH   8   9
ENDBRANCH   1   8
TORSDOF 3
ENDMDL
MODEL 8
REMARK VINA RESULT:      -3.8      2.637      3.198
REMARK  3 active torsions:
REMARK  status: ('A' for Active; 'I' for Inactive)
REMARK    1  A    between atoms: C_1  and  C_4 
REMARK    2  A    between atoms: S_2  and  C_4 
REMARK    3  A    between atoms: S_2  and  C_5 
ROOT
HETATM    1  C   UNL     1      65.088   7.936   5.126  1.00  0.00     0.001 A 
HETATM    2  C   UNL     1      63.153   7.954   3.089  1.00  0.00     0.034 A 
HETATM    3 CL   UNL     1      61.981   7.979   1.832  1.00  0.00    -0.084 Cl
HETATM    4  C   UNL     1      64.143   8.966   5.055  1.00  0.00     0.020 A 
HETATM    5  C   UNL     1      65.048   6.918   4.162  1.00  0.00     0.020 A 
HETATM    6  C   UNL     1      64.082   6.921   3.150  1.00  0.00     0.025 A 
HETATM    7  C   UNL     1      63.177   8.974   4.038  1.00  0.00     0.025 A 
ENDROOT
BRANCH   1   8
HETATM    8  S   UNL     1      66.426   7.878   6.307  1.00  0.00    -0.119 SA
BRANCH   8   9
HETATM    9  C   UNL     1      66.555   6.105   6.722  1.00  0.00     0.192 C 
BRANCH   9  10
HETATM   10  C   UNL     1      66.529   5.910   8.222  1.00  0.00     0.182 C 
HETATM   11  O   UNL     1      66.185   4.926   8.855  1.00  0.00    -0.647 OA
HETATM   12  O   UNL     1      67.030   6.978   8.884  1.00  0.00    -0.647 OA
ENDBRANCH   9  10
ENDBRANCH   8   9
ENDBRANCH   1   8
TORSDOF 3
ENDMDL
MODEL 9
REMARK VINA RESULT:      -3.7      3.408      4.061
REMARK  3 active torsions:
REMARK  status: ('A' for Active; 'I' for Inactive)
REMARK    1  A    between atoms: C_1  and  C_4 
REMARK    2  A    between atoms: S_2  and  C_4 
REMARK    3  A    between atoms: S_2  and  C_5 
ROOT
HETATM    1  C   UNL     1      62.500   7.833   3.060  1.00  0.00     0.001 A 
HETATM    2  C   UNL     1      61.943  10.489   2.335  1.00  0.00     0.034 A 
HETATM    3 CL   UNL     1      61.623  12.119   1.892  1.00  0.00    -0.084 Cl
HETATM    4  C   UNL     1      62.434   8.834   4.035  1.00  0.00     0.020 A 
HETATM    5  C   UNL     1      62.284   8.183   1.719  1.00  0.00     0.020 A 
HETATM    6  C   UNL     1      62.001   9.503   1.356  1.00  0.00     0.025 A 
HETATM    7  C   UNL     1      62.155  10.160   3.672  1.00  0.00     0.025 A 
ENDROOT
BRANCH   1   8
HETATM    8  S   UNL     1      62.952   6.136   3.389  1.00  0.00    -0.119 SA
BRANCH   8   9
HETATM    9  C   UNL     1      61.369   5.239   3.258  1.00  0.00     0.192 C 
BRANCH   9  10
HETATM   10  C   UNL     1      60.291   5.949   4.050  1.00  0.00     0.182 C 
HETATM   11  O   UNL     1      59.271   6.476   3.641  1.00  0.00    -0.647 OA
HETATM   12  O   UNL     1      60.519   5.894   5.382  1.00  0.00    -0.647 OA
ENDBRANCH   9  10
ENDBRANCH   8   9
ENDBRANCH   1   8
TORSDOF 3
ENDMDL
