MODEL 1
REMARK VINA RESULT:      -5.3      0.000      0.000
REMARK  1 active torsions:
REMARK  status: ('A' for Active; 'I' for Inactive)
REMARK    1  A    between atoms: C_4  and  O_10 
ROOT
HETATM    1  C   UNL     1      63.551   9.765   4.987  1.00  0.00     0.052 A 
HETATM    2  N   UNL     1      62.469  11.773   5.191  1.00  0.00    -0.238 N 
ATOM      3  HN  UNL     1      62.219  12.713   5.499  1.00  0.00     0.197 HD
HETATM    4  C   UNL     1      63.480  11.021   5.614  1.00  0.00     0.173 A 
HETATM    5  C   UNL     1      62.473   9.798   4.115  1.00  0.00     0.115 A 
HETATM    6  O   UNL     1      61.827  10.993   4.234  1.00  0.00    -0.235 OA
HETATM    7  C   UNL     1      64.360   8.616   5.028  1.00  0.00     0.020 A 
HETATM    8  C   UNL     1      62.123   8.761   3.257  1.00  0.00     0.064 A 
HETATM    9  C   UNL     1      62.939   7.627   3.311  1.00  0.00     0.036 A 
HETATM   10  C   UNL     1      64.036   7.550   4.175  1.00  0.00     0.025 A 
HETATM   11 CL   UNL     1      62.582   6.290   2.283  1.00  0.00    -0.084 Cl
ENDROOT
BRANCH   4  12
HETATM   12  O   UNL     1      64.277  11.543   6.556  1.00  0.00    -0.344 OA
HETATM   13  H   UNL     1      64.724  10.979   7.156  1.00  0.00     0.219 HD
ENDBRANCH   4  12
TORSDOF 1
ENDMDL
MODEL 2
REMARK VINA RESULT:      -5.1      1.103      2.134
REMARK  1 active torsions:
REMARK  status: ('A' for Active; 'I' for Inactive)
REMARK    1  A    between atoms: C_4  and  O_10 
ROOT
HETATM    1  C   UNL     1      62.819   9.868   4.153  1.00  0.00     0.052 A 
HETATM    2  N   UNL     1      63.615  11.097   5.914  1.00  0.00    -0.238 N 
ATOM      3  HN  UNL     1      63.747  11.849   6.590  1.00  0.00     0.197 HD
HETATM    4  C   UNL     1      62.747  11.051   4.909  1.00  0.00     0.173 A 
HETATM    5  C   UNL     1      63.829   9.162   4.789  1.00  0.00     0.115 A 
HETATM    6  O   UNL     1      64.305   9.891   5.838  1.00  0.00    -0.235 OA
HETATM    7  C   UNL     1      62.183   9.296   3.037  1.00  0.00     0.020 A 
HETATM    8  C   UNL     1      64.272   7.902   4.400  1.00  0.00     0.064 A 
HETATM    9  C   UNL     1      63.630   7.348   3.289  1.00  0.00     0.036 A 
HETATM   10  C   UNL     1      62.606   8.025   2.617  1.00  0.00     0.025 A 
HETATM   11 CL   UNL     1      64.112   5.789   2.734  1.00  0.00    -0.084 Cl
ENDROOT
BRANCH   4  12
HETATM   12  O   UNL     1      61.940  12.109   4.750  1.00  0.00    -0.344 OA
HETATM   13  H   UNL     1      61.959  12.810   5.372  1.00  0.00     0.219 HD
ENDBRANCH   4  12
TORSDOF 1
ENDMDL
MODEL 3
REMARK VINA RESULT:      -4.8      2.927      3.605
REMARK  1 active torsions:
REMARK  status: ('A' for Active; 'I' for Inactive)
REMARK    1  A    between atoms: C_4  and  O_10 
ROOT
HETATM    1  C   UNL     1      62.779   8.210   4.135  1.00  0.00     0.052 A 
HETATM    2  N   UNL     1      63.269   7.934   6.356  1.00  0.00    -0.238 N 
ATOM      3  HN  UNL     1      63.526   7.508   7.246  1.00  0.00     0.197 HD
HETATM    4  C   UNL     1      63.154   7.338   5.173  1.00  0.00     0.173 A 
HETATM    5  C   UNL     1      62.668   9.428   4.786  1.00  0.00     0.115 A 
HETATM    6  O   UNL     1      62.959   9.268   6.109  1.00  0.00    -0.235 OA
HETATM    7  C   UNL     1      62.521   8.146   2.755  1.00  0.00     0.020 A 
HETATM    8  C   UNL     1      62.314  10.622   4.166  1.00  0.00     0.064 A 
HETATM    9  C   UNL     1      62.061  10.541   2.793  1.00  0.00     0.036 A 
HETATM   10  C   UNL     1      62.160   9.332   2.096  1.00  0.00     0.025 A 
HETATM   11 CL   UNL     1      61.615  11.970   1.939  1.00  0.00    -0.084 Cl
ENDROOT
BRANCH   4  12
HETATM   12  O   UNL     1      63.403   6.023   5.125  1.00  0.00    -0.344 OA
HETATM   13  H   UNL     1      64.277   5.707   5.246  1.00  0.00     0.219 HD
ENDBRANCH   4  12
TORSDOF 1
ENDMDL
MODEL 4
REMARK VINA RESULT:      -4.8      1.670      1.990
REMARK  1 active torsions:
REMARK  status: ('A' for Active; 'I' for Inactive)
REMARK    1  A    between atoms: C_4  and  O_10 
ROOT
HETATM    1  C   UNL     1      62.546   9.828   3.714  1.00  0.00     0.052 A 
HETATM    2  N   UNL     1      61.482  11.405   2.438  1.00  0.00    -0.238 N 
ATOM      3  HN  UNL     1      61.041  12.275   2.141  1.00  0.00     0.197 HD
HETATM    4  C   UNL     1      62.017  11.128   3.622  1.00  0.00     0.173 A 
HETATM    5  C   UNL     1      62.291   9.307   2.455  1.00  0.00     0.115 A 
HETATM    6  O   UNL     1      61.657  10.243   1.692  1.00  0.00    -0.235 OA
HETATM    7  C   UNL     1      63.197   9.026   4.666  1.00  0.00     0.020 A 
HETATM    8  C   UNL     1      62.638   8.021   2.051  1.00  0.00     0.064 A 
HETATM    9  C   UNL     1      63.284   7.237   3.010  1.00  0.00     0.036 A 
HETATM   10  C   UNL     1      63.562   7.723   4.293  1.00  0.00     0.025 A 
HETATM   11 CL   UNL     1      63.753   5.630   2.600  1.00  0.00    -0.084 Cl
ENDROOT
BRANCH   4  12
HETATM   12  O   UNL     1      61.983  12.094   4.549  1.00  0.00    -0.344 OA
HETATM   13  H   UNL     1      61.993  11.872   5.459  1.00  0.00     0.219 HD
ENDBRANCH   4  12
TORSDOF 1
ENDMDL
MODEL 5
REMARK VINA RESULT:      -4.8      1.938      2.550
REMARK  1 active torsions:
REMARK  status: ('A' for Active; 'I' for Inactive)
REMARK    1  A    between atoms: C_4  and  O_10 
ROOT
HETATM    1  C   UNL     1      62.745   9.991   4.028  1.00  0.00     0.052 A 
HETATM    2  N   UNL     1      64.019   9.238   5.776  1.00  0.00    -0.238 N 
ATOM      3  HN  UNL     1      64.515   9.195   6.666  1.00  0.00     0.197 HD
HETATM    4  C   UNL     1      63.303  10.248   5.292  1.00  0.00     0.173 A 
HETATM    5  C   UNL     1      63.183   8.703   3.758  1.00  0.00     0.115 A 
HETATM    6  O   UNL     1      63.942   8.252   4.797  1.00  0.00    -0.235 OA
HETATM    7  C   UNL     1      61.941  10.651   3.082  1.00  0.00     0.020 A 
HETATM    8  C   UNL     1      62.881   7.996   2.598  1.00  0.00     0.064 A 
HETATM    9  C   UNL     1      62.081   8.668   1.669  1.00  0.00     0.036 A 
HETATM   10  C   UNL     1      61.617   9.967   1.900  1.00  0.00     0.025 A 
HETATM   11 CL   UNL     1      61.654   7.871   0.201  1.00  0.00    -0.084 Cl
ENDROOT
BRANCH   4  12
HETATM   12  O   UNL     1      63.210  11.348   6.050  1.00  0.00    -0.344 OA
HETATM   13  H   UNL     1      63.305  11.286   6.980  1.00  0.00     0.219 HD
ENDBRANCH   4  12
TORSDOF 1
ENDMDL
MODEL 6
REMARK VINA RESULT:      -4.7      3.065      3.561
REMARK  1 active torsions:
REMARK  status: ('A' for Active; 'I' for Inactive)
REMARK    1  A    between atoms: C_4  and  O_10 
ROOT
HETATM    1  C   UNL     1      62.881   8.917   5.048  1.00  0.00     0.052 A 
HETATM    2  N   UNL     1      63.160   6.654   4.827  1.00  0.00    -0.238 N 
ATOM      3  HN  UNL     1      63.363   5.678   5.039  1.00  0.00     0.197 HD
HETATM    4  C   UNL     1      63.224   7.694   5.652  1.00  0.00     0.173 A 
HETATM    5  C   UNL     1      62.590   8.542   3.746  1.00  0.00     0.115 A 
HETATM    6  O   UNL     1      62.755   7.195   3.610  1.00  0.00    -0.235 OA
HETATM    7  C   UNL     1      62.775  10.272   5.409  1.00  0.00     0.020 A 
HETATM    8  C   UNL     1      62.191   9.422   2.744  1.00  0.00     0.064 A 
HETATM    9  C   UNL     1      62.091  10.764   3.120  1.00  0.00     0.036 A 
HETATM   10  C   UNL     1      62.374  11.187   4.423  1.00  0.00     0.025 A 
HETATM   11 CL   UNL     1      61.602  11.928   1.946  1.00  0.00    -0.084 Cl
ENDROOT
BRANCH   4  12
HETATM   12  O   UNL     1      63.596   7.450   6.916  1.00  0.00    -0.344 OA
HETATM   13  H   UNL     1      64.353   6.926   7.088  1.00  0.00     0.219 HD
ENDBRANCH   4  12
TORSDOF 1
ENDMDL
MODEL 7
REMARK VINA RESULT:      -4.7      2.034      2.971
REMARK  1 active torsions:
REMARK  status: ('A' for Active; 'I' for Inactive)
REMARK    1  A    between atoms: C_4  and  O_10 
ROOT
HETATM    1  C   UNL     1      62.071   9.895   2.066  1.00  0.00     0.052 A 
HETATM    2  N   UNL     1      61.939  11.373   3.811  1.00  0.00    -0.238 N 
ATOM      3  HN  UNL     1      61.860  12.239   4.344  1.00  0.00     0.197 HD
HETATM    4  C   UNL     1      61.945  11.230   2.490  1.00  0.00     0.173 A 
HETATM    5  C   UNL     1      62.142   9.201   3.264  1.00  0.00     0.115 A 
HETATM    6  O   UNL     1      62.064  10.078   4.306  1.00  0.00    -0.235 OA
HETATM    7  C   UNL     1      62.132   9.180   0.858  1.00  0.00     0.020 A 
HETATM    8  C   UNL     1      62.272   7.820   3.367  1.00  0.00     0.064 A 
HETATM    9  C   UNL     1      62.332   7.125   2.156  1.00  0.00     0.036 A 
HETATM   10  C   UNL     1      62.264   7.784   0.924  1.00  0.00     0.025 A 
HETATM   11 CL   UNL     1      62.493   5.409   2.183  1.00  0.00    -0.084 Cl
ENDROOT
BRANCH   4  12
HETATM   12  O   UNL     1      61.835  12.344   1.754  1.00  0.00    -0.344 OA
HETATM   13  H   UNL     1      61.027  12.545   1.325  1.00  0.00     0.219 HD
ENDBRANCH   4  12
TORSDOF 1
ENDMDL
MODEL 8
REMARK VINA RESULT:      -4.5      2.980      3.717
REMARK  1 active torsions:
REMARK  status: ('A' for Active; 'I' for Inactive)
REMARK    1  A    between atoms: C_4  and  O_10 
ROOT
HETATM    1  C   UNL     1      66.001   7.349   5.039  1.00  0.00     0.052 A 
HETATM    2  N   UNL     1      66.721   8.650   6.782  1.00  0.00    -0.238 N 
ATOM      3  HN  UNL     1      67.276   9.010   7.558  1.00  0.00     0.197 HD
HETATM    4  C   UNL     1      66.968   7.579   6.035  1.00  0.00     0.173 A 
HETATM    5  C   UNL     1      65.110   8.393   5.235  1.00  0.00     0.115 A 
HETATM    6  O   UNL     1      65.535   9.170   6.272  1.00  0.00    -0.235 OA
HETATM    7  C   UNL     1      65.752   6.422   4.013  1.00  0.00     0.020 A 
HETATM    8  C   UNL     1      63.962   8.600   4.475  1.00  0.00     0.064 A 
HETATM    9  C   UNL     1      63.731   7.668   3.460  1.00  0.00     0.036 A 
HETATM   10  C   UNL     1      64.603   6.600   3.227  1.00  0.00     0.025 A 
HETATM   11 CL   UNL     1      62.333   7.843   2.466  1.00  0.00    -0.084 Cl
ENDROOT
BRANCH   4  12
HETATM   12  O   UNL     1      68.073   6.878   6.318  1.00  0.00    -0.344 OA
HETATM   13  H   UNL     1      68.139   6.413   7.129  1.00  0.00     0.219 HD
ENDBRANCH   4  12
TORSDOF 1
ENDMDL
MODEL 9
REMARK VINA RESULT:      -4.3      2.059      3.183
REMARK  1 active torsions:
REMARK  status: ('A' for Active; 'I' for Inactive)
REMARK    1  A    between atoms: C_4  and  O_10 
ROOT
HETATM    1  C   UNL     1      62.708   8.698   3.145  1.00  0.00     0.052 A 
HETATM    2  N   UNL     1      61.530  10.644   3.411  1.00  0.00    -0.238 N 
ATOM      3  HN  UNL     1      60.866  11.404   3.260  1.00  0.00     0.197 HD
HETATM    4  C   UNL     1      61.704   9.559   2.665  1.00  0.00     0.173 A 
HETATM    5  C   UNL     1      63.154   9.355   4.281  1.00  0.00     0.115 A 
HETATM    6  O   UNL     1      62.455  10.515   4.442  1.00  0.00    -0.235 OA
HETATM    7  C   UNL     1      63.297   7.473   2.788  1.00  0.00     0.020 A 
HETATM    8  C   UNL     1      64.163   8.885   5.116  1.00  0.00     0.064 A 
HETATM    9  C   UNL     1      64.737   7.666   4.747  1.00  0.00     0.036 A 
HETATM   10  C   UNL     1      64.318   6.968   3.609  1.00  0.00     0.025 A 
HETATM   11 CL   UNL     1      65.995   7.004   5.722  1.00  0.00    -0.084 Cl
ENDROOT
BRANCH   4  12
HETATM   12  O   UNL     1      60.924   9.428   1.584  1.00  0.00    -0.344 OA
HETATM   13  H   UNL     1      60.668   8.576   1.291  1.00  0.00     0.219 HD
ENDBRANCH   4  12
TORSDOF 1
ENDMDL
