MODEL 1
REMARK VINA RESULT:      -4.7      0.000      0.000
REMARK  2 active torsions:
REMARK  status: ('A' for Active; 'I' for Inactive)
REMARK    1  A    between atoms: C_1  and  C_2 
REMARK    2  A    between atoms: C_4  and  N_5 
ROOT
HETATM    1  C   UNL     1      62.944   8.746   3.819  1.00  0.00    -0.048 A 
HETATM    2  C   UNL     1      63.292   9.416   5.008  1.00  0.00     0.037 A 
HETATM    3  C   UNL     1      62.963  10.760   5.233  1.00  0.00     0.026 A 
HETATM    4  C   UNL     1      62.203   9.471   2.868  1.00  0.00     0.008 A 
HETATM    5  C   UNL     1      61.815  10.792   3.106  1.00  0.00     0.003 A 
HETATM    6  C   UNL     1      62.176  11.423   4.294  1.00  0.00     0.029 A 
ENDROOT
BRANCH   1   7
HETATM    7  C   UNL     1      63.320   7.277   3.558  1.00  0.00    -0.024 C 
HETATM    8  C   UNL     1      64.807   6.959   3.836  1.00  0.00     0.019 C 
HETATM    9  C   UNL     1      62.477   6.356   4.467  1.00  0.00     0.019 C 
HETATM   10  C   UNL     1      63.047   6.915   2.082  1.00  0.00     0.019 C 
ENDBRANCH   1   7
BRANCH   3  11
HETATM   11  N   UNL     1      63.218  11.345   6.481  1.00  0.00    -0.399 N 
HETATM   12  H   UNL     1      62.492  11.438   7.139  1.00  0.00     0.156 HD
HETATM   13  H   UNL     1      64.123  11.664   6.699  1.00  0.00     0.156 HD
ENDBRANCH   3  11
TORSDOF 2
ENDMDL
MODEL 2
REMARK VINA RESULT:      -4.7      0.452      1.373
REMARK  2 active torsions:
REMARK  status: ('A' for Active; 'I' for Inactive)
REMARK    1  A    between atoms: C_1  and  C_2 
REMARK    2  A    between atoms: C_4  and  N_5 
ROOT
HETATM    1  C   UNL     1      63.234   8.634   4.076  1.00  0.00    -0.048 A 
HETATM    2  C   UNL     1      63.580   9.432   5.182  1.00  0.00     0.037 A 
HETATM    3  C   UNL     1      63.145  10.758   5.314  1.00  0.00     0.026 A 
HETATM    4  C   UNL     1      62.385   9.208   3.111  1.00  0.00     0.008 A 
HETATM    5  C   UNL     1      61.894  10.507   3.261  1.00  0.00     0.003 A 
HETATM    6  C   UNL     1      62.256  11.268   4.371  1.00  0.00     0.029 A 
ENDROOT
BRANCH   1   7
HETATM    7  C   UNL     1      63.725   7.184   3.915  1.00  0.00    -0.024 C 
HETATM    8  C   UNL     1      63.569   6.632   2.480  1.00  0.00     0.019 C 
HETATM    9  C   UNL     1      65.225   7.103   4.277  1.00  0.00     0.019 C 
HETATM   10  C   UNL     1      62.930   6.248   4.851  1.00  0.00     0.019 C 
ENDBRANCH   1   7
BRANCH   3  11
HETATM   11  N   UNL     1      63.409  11.470   6.493  1.00  0.00    -0.399 N 
HETATM   12  H   UNL     1      62.914  12.298   6.689  1.00  0.00     0.156 HD
HETATM   13  H   UNL     1      64.089  11.141   7.123  1.00  0.00     0.156 HD
ENDBRANCH   3  11
TORSDOF 2
ENDMDL
MODEL 3
REMARK VINA RESULT:      -4.6      1.563      2.413
REMARK  2 active torsions:
REMARK  status: ('A' for Active; 'I' for Inactive)
REMARK    1  A    between atoms: C_1  and  C_2 
REMARK    2  A    between atoms: C_4  and  N_5 
ROOT
HETATM    1  C   UNL     1      62.520   8.978   3.096  1.00  0.00    -0.048 A 
HETATM    2  C   UNL     1      63.520   8.511   3.971  1.00  0.00     0.037 A 
HETATM    3  C   UNL     1      63.955   9.257   5.076  1.00  0.00     0.026 A 
HETATM    4  C   UNL     1      61.934  10.221   3.397  1.00  0.00     0.008 A 
HETATM    5  C   UNL     1      62.315  10.946   4.529  1.00  0.00     0.003 A 
HETATM    6  C   UNL     1      63.306  10.453   5.374  1.00  0.00     0.029 A 
ENDROOT
BRANCH   1   7
HETATM    7  C   UNL     1      62.052   8.173   1.871  1.00  0.00    -0.024 C 
HETATM    8  C   UNL     1      62.214   8.930   0.533  1.00  0.00     0.019 C 
HETATM    9  C   UNL     1      62.875   6.870   1.762  1.00  0.00     0.019 C 
HETATM   10  C   UNL     1      60.557   7.814   2.012  1.00  0.00     0.019 C 
ENDBRANCH   1   7
BRANCH   3  11
HETATM   11  N   UNL     1      64.858   8.697   5.989  1.00  0.00    -0.399 N 
HETATM   12  H   UNL     1      65.816   8.918   5.934  1.00  0.00     0.156 HD
HETATM   13  H   UNL     1      64.535   8.081   6.686  1.00  0.00     0.156 HD
ENDBRANCH   3  11
TORSDOF 2
ENDMDL
MODEL 4
REMARK VINA RESULT:      -4.5      1.984      2.823
REMARK  2 active torsions:
REMARK  status: ('A' for Active; 'I' for Inactive)
REMARK    1  A    between atoms: C_1  and  C_2 
REMARK    2  A    between atoms: C_4  and  N_5 
ROOT
HETATM    1  C   UNL     1      63.468   8.821   4.489  1.00  0.00    -0.048 A 
HETATM    2  C   UNL     1      62.763   8.816   3.270  1.00  0.00     0.037 A 
HETATM    3  C   UNL     1      61.932   9.876   2.882  1.00  0.00     0.026 A 
HETATM    4  C   UNL     1      63.343   9.964   5.298  1.00  0.00     0.008 A 
HETATM    5  C   UNL     1      62.567  11.054   4.895  1.00  0.00     0.003 A 
HETATM    6  C   UNL     1      61.884  11.016   3.681  1.00  0.00     0.029 A 
ENDROOT
BRANCH   1   7
HETATM    7  C   UNL     1      64.366   7.651   4.929  1.00  0.00    -0.024 C 
HETATM    8  C   UNL     1      63.748   6.783   6.050  1.00  0.00     0.019 C 
HETATM    9  C   UNL     1      64.633   6.721   3.725  1.00  0.00     0.019 C 
HETATM   10  C   UNL     1      65.713   8.187   5.460  1.00  0.00     0.019 C 
ENDBRANCH   1   7
BRANCH   3  11
HETATM   11  N   UNL     1      61.353   9.883   1.606  1.00  0.00    -0.399 N 
HETATM   12  H   UNL     1      61.653  10.536   0.933  1.00  0.00     0.156 HD
HETATM   13  H   UNL     1      60.646   9.236   1.383  1.00  0.00     0.156 HD
ENDBRANCH   3  11
TORSDOF 2
ENDMDL
MODEL 5
REMARK VINA RESULT:      -4.5      1.581      3.614
REMARK  2 active torsions:
REMARK  status: ('A' for Active; 'I' for Inactive)
REMARK    1  A    between atoms: C_1  and  C_2 
REMARK    2  A    between atoms: C_4  and  N_5 
ROOT
HETATM    1  C   UNL     1      63.234   8.367   3.606  1.00  0.00    -0.048 A 
HETATM    2  C   UNL     1      63.971   8.770   4.736  1.00  0.00     0.037 A 
HETATM    3  C   UNL     1      65.055   8.028   5.226  1.00  0.00     0.026 A 
HETATM    4  C   UNL     1      63.656   7.197   2.949  1.00  0.00     0.008 A 
HETATM    5  C   UNL     1      64.772   6.481   3.390  1.00  0.00     0.003 A 
HETATM    6  C   UNL     1      65.480   6.910   4.511  1.00  0.00     0.029 A 
ENDROOT
BRANCH   1   7
HETATM    7  C   UNL     1      62.031   9.167   3.075  1.00  0.00    -0.024 C 
HETATM    8  C   UNL     1      62.066   9.397   1.547  1.00  0.00     0.019 C 
HETATM    9  C   UNL     1      60.723   8.409   3.395  1.00  0.00     0.019 C 
HETATM   10  C   UNL     1      61.983  10.558   3.743  1.00  0.00     0.019 C 
ENDBRANCH   1   7
BRANCH   3  11
HETATM   11  N   UNL     1      65.836   8.534   6.274  1.00  0.00    -0.399 N 
HETATM   12  H   UNL     1      65.467   8.580   7.186  1.00  0.00     0.156 HD
HETATM   13  H   UNL     1      66.754   8.844   6.098  1.00  0.00     0.156 HD
ENDBRANCH   3  11
TORSDOF 2
ENDMDL
MODEL 6
REMARK VINA RESULT:      -4.4      1.922      2.936
REMARK  2 active torsions:
REMARK  status: ('A' for Active; 'I' for Inactive)
REMARK    1  A    between atoms: C_1  and  C_2 
REMARK    2  A    between atoms: C_4  and  N_5 
ROOT
HETATM    1  C   UNL     1      63.060   8.258   3.484  1.00  0.00    -0.048 A 
HETATM    2  C   UNL     1      62.565   9.575   3.436  1.00  0.00     0.037 A 
HETATM    3  C   UNL     1      62.004  10.122   2.274  1.00  0.00     0.026 A 
HETATM    4  C   UNL     1      62.930   7.481   2.319  1.00  0.00     0.008 A 
HETATM    5  C   UNL     1      62.317   7.993   1.172  1.00  0.00     0.003 A 
HETATM    6  C   UNL     1      61.837   9.301   1.161  1.00  0.00     0.029 A 
ENDROOT
BRANCH   1   7
HETATM    7  C   UNL     1      63.696   7.659   4.752  1.00  0.00    -0.024 C 
HETATM    8  C   UNL     1      64.180   6.202   4.573  1.00  0.00     0.019 C 
HETATM    9  C   UNL     1      64.923   8.502   5.164  1.00  0.00     0.019 C 
HETATM   10  C   UNL     1      62.673   7.659   5.908  1.00  0.00     0.019 C 
ENDBRANCH   1   7
BRANCH   3  11
HETATM   11  N   UNL     1      61.410  11.391   2.311  1.00  0.00    -0.399 N 
HETATM   12  H   UNL     1      61.587  11.995   3.067  1.00  0.00     0.156 HD
HETATM   13  H   UNL     1      60.816  11.677   1.580  1.00  0.00     0.156 HD
ENDBRANCH   3  11
TORSDOF 2
ENDMDL
MODEL 7
REMARK VINA RESULT:      -4.3      1.317      2.937
REMARK  2 active torsions:
REMARK  status: ('A' for Active; 'I' for Inactive)
REMARK    1  A    between atoms: C_1  and  C_2 
REMARK    2  A    between atoms: C_4  and  N_5 
ROOT
HETATM    1  C   UNL     1      62.855   8.370   3.111  1.00  0.00    -0.048 A 
HETATM    2  C   UNL     1      62.685   9.508   3.922  1.00  0.00     0.037 A 
HETATM    3  C   UNL     1      63.457   9.731   5.070  1.00  0.00     0.026 A 
HETATM    4  C   UNL     1      63.874   7.470   3.474  1.00  0.00     0.008 A 
HETATM    5  C   UNL     1      64.692   7.712   4.580  1.00  0.00     0.003 A 
HETATM    6  C   UNL     1      64.496   8.850   5.360  1.00  0.00     0.029 A 
ENDROOT
BRANCH   1   7
HETATM    7  C   UNL     1      61.996   8.109   1.860  1.00  0.00    -0.024 C 
HETATM    8  C   UNL     1      60.496   7.904   2.171  1.00  0.00     0.019 C 
HETATM    9  C   UNL     1      62.104   9.313   0.898  1.00  0.00     0.019 C 
HETATM   10  C   UNL     1      62.488   6.838   1.135  1.00  0.00     0.019 C 
ENDBRANCH   1   7
BRANCH   3  11
HETATM   11  N   UNL     1      63.339  10.938   5.772  1.00  0.00    -0.399 N 
HETATM   12  H   UNL     1      63.171  11.777   5.285  1.00  0.00     0.156 HD
HETATM   13  H   UNL     1      63.423  10.947   6.753  1.00  0.00     0.156 HD
ENDBRANCH   3  11
TORSDOF 2
ENDMDL
MODEL 8
REMARK VINA RESULT:      -3.9      2.533      3.976
REMARK  2 active torsions:
REMARK  status: ('A' for Active; 'I' for Inactive)
REMARK    1  A    between atoms: C_1  and  C_2 
REMARK    2  A    between atoms: C_4  and  N_5 
ROOT
HETATM    1  C   UNL     1      62.959   8.276   2.901  1.00  0.00    -0.048 A 
HETATM    2  C   UNL     1      63.670   7.069   2.757  1.00  0.00     0.037 A 
HETATM    3  C   UNL     1      64.625   6.647   3.692  1.00  0.00     0.026 A 
HETATM    4  C   UNL     1      63.213   9.036   4.058  1.00  0.00     0.008 A 
HETATM    5  C   UNL     1      64.118   8.596   5.028  1.00  0.00     0.003 A 
HETATM    6  C   UNL     1      64.802   7.395   4.853  1.00  0.00     0.029 A 
ENDROOT
BRANCH   1   7
HETATM    7  C   UNL     1      61.923   8.755   1.868  1.00  0.00    -0.024 C 
HETATM    8  C   UNL     1      62.257   8.338   0.417  1.00  0.00     0.019 C 
HETATM    9  C   UNL     1      60.539   8.160   2.208  1.00  0.00     0.019 C 
HETATM   10  C   UNL     1      61.828  10.296   1.888  1.00  0.00     0.019 C 
ENDBRANCH   1   7
BRANCH   3  11
HETATM   11  N   UNL     1      65.213   5.380   3.572  1.00  0.00    -0.399 N 
HETATM   12  H   UNL     1      65.810   5.184   2.814  1.00  0.00     0.156 HD
HETATM   13  H   UNL     1      65.028   4.686   4.245  1.00  0.00     0.156 HD
ENDBRANCH   3  11
TORSDOF 2
ENDMDL
MODEL 9
REMARK VINA RESULT:      -3.9      3.005      4.870
REMARK  2 active torsions:
REMARK  status: ('A' for Active; 'I' for Inactive)
REMARK    1  A    between atoms: C_1  and  C_2 
REMARK    2  A    between atoms: C_4  and  N_5 
ROOT
HETATM    1  C   UNL     1      64.922   7.764   4.722  1.00  0.00    -0.048 A 
HETATM    2  C   UNL     1      65.505   6.798   3.879  1.00  0.00     0.037 A 
HETATM    3  C   UNL     1      66.835   6.379   4.029  1.00  0.00     0.026 A 
HETATM    4  C   UNL     1      65.720   8.270   5.764  1.00  0.00     0.008 A 
HETATM    5  C   UNL     1      67.026   7.816   5.963  1.00  0.00     0.003 A 
HETATM    6  C   UNL     1      67.570   6.858   5.110  1.00  0.00     0.029 A 
ENDROOT
BRANCH   1   7
HETATM    7  C   UNL     1      63.470   8.242   4.551  1.00  0.00    -0.024 C 
HETATM    8  C   UNL     1      62.991   8.256   3.081  1.00  0.00     0.019 C 
HETATM    9  C   UNL     1      62.520   7.308   5.333  1.00  0.00     0.019 C 
HETATM   10  C   UNL     1      63.318   9.681   5.091  1.00  0.00     0.019 C 
ENDBRANCH   1   7
BRANCH   3  11
HETATM   11  N   UNL     1      67.330   5.325   3.249  1.00  0.00    -0.399 N 
HETATM   12  H   UNL     1      67.900   4.635   3.659  1.00  0.00     0.156 HD
HETATM   13  H   UNL     1      67.108   5.275   2.291  1.00  0.00     0.156 HD
ENDBRANCH   3  11
TORSDOF 2
ENDMDL
