MODEL 1
REMARK VINA RESULT:      -5.3      0.000      0.000
REMARK  1 active torsions:
REMARK  status: ('A' for Active; 'I' for Inactive)
REMARK    1  A    between atoms: C_3  and  O_7 
ROOT
HETATM    1  N   UNL     1      62.472  11.754   5.199  1.00  0.00    -0.238 N 
ATOM      2  HN  UNL     1      62.235  12.690   5.527  1.00  0.00     0.197 HD
HETATM    3  C   UNL     1      63.486  10.985   5.580  1.00  0.00     0.173 A 
HETATM    4  C   UNL     1      63.544   9.744   4.938  1.00  0.00     0.052 A 
HETATM    5  O   UNL     1      61.802  10.984   4.242  1.00  0.00    -0.235 OA
HETATM    6  C   UNL     1      62.448   9.788   4.092  1.00  0.00     0.113 A 
HETATM    7  C   UNL     1      64.357   8.603   4.952  1.00  0.00     0.019 A 
HETATM    8  C   UNL     1      62.087   8.753   3.233  1.00  0.00     0.040 A 
HETATM    9  C   UNL     1      64.023   7.543   4.099  1.00  0.00     0.001 A 
HETATM   10  C   UNL     1      62.909   7.618   3.255  1.00  0.00     0.003 A 
ENDROOT
BRANCH   3  11
HETATM   11  O   UNL     1      64.306  11.486   6.505  1.00  0.00    -0.344 OA
HETATM   12  H   UNL     1      64.614  10.941   7.202  1.00  0.00     0.219 HD
ENDBRANCH   3  11
TORSDOF 1
ENDMDL
MODEL 2
REMARK VINA RESULT:      -5.1      1.652      2.296
REMARK  1 active torsions:
REMARK  status: ('A' for Active; 'I' for Inactive)
REMARK    1  A    between atoms: C_3  and  O_7 
ROOT
HETATM    1  N   UNL     1      62.896  10.637   5.892  1.00  0.00    -0.238 N 
ATOM      2  HN  UNL     1      63.085  10.899   6.859  1.00  0.00     0.197 HD
HETATM    3  C   UNL     1      63.110   9.465   5.304  1.00  0.00     0.173 A 
HETATM    4  C   UNL     1      62.745   9.419   3.955  1.00  0.00     0.052 A 
HETATM    5  O   UNL     1      62.350  11.431   4.877  1.00  0.00    -0.235 OA
HETATM    6  C   UNL     1      62.264  10.698   3.727  1.00  0.00     0.113 A 
HETATM    7  C   UNL     1      62.751   8.489   2.907  1.00  0.00     0.019 A 
HETATM    8  C   UNL     1      61.775  11.136   2.499  1.00  0.00     0.040 A 
HETATM    9  C   UNL     1      62.267   8.898   1.657  1.00  0.00     0.001 A 
HETATM   10  C   UNL     1      61.788  10.198   1.458  1.00  0.00     0.003 A 
ENDROOT
BRANCH   3  11
HETATM   11  O   UNL     1      63.639   8.501   6.060  1.00  0.00    -0.344 OA
HETATM   12  H   UNL     1      64.528   8.568   6.349  1.00  0.00     0.219 HD
ENDBRANCH   3  11
TORSDOF 1
ENDMDL
MODEL 3
REMARK VINA RESULT:      -5.1      1.010      2.167
REMARK  1 active torsions:
REMARK  status: ('A' for Active; 'I' for Inactive)
REMARK    1  A    between atoms: C_3  and  O_7 
ROOT
HETATM    1  N   UNL     1      63.646  11.090   5.915  1.00  0.00    -0.238 N 
ATOM      2  HN  UNL     1      63.787  11.848   6.583  1.00  0.00     0.197 HD
HETATM    3  C   UNL     1      62.768  11.030   4.919  1.00  0.00     0.173 A 
HETATM    4  C   UNL     1      62.817   9.847   4.176  1.00  0.00     0.052 A 
HETATM    5  O   UNL     1      64.330   9.873   5.838  1.00  0.00    -0.235 OA
HETATM    6  C   UNL     1      63.830   9.138   4.800  1.00  0.00     0.113 A 
HETATM    7  C   UNL     1      62.157   9.282   3.077  1.00  0.00     0.019 A 
HETATM    8  C   UNL     1      64.250   7.871   4.403  1.00  0.00     0.040 A 
HETATM    9  C   UNL     1      62.554   8.007   2.651  1.00  0.00     0.001 A 
HETATM   10  C   UNL     1      63.581   7.315   3.304  1.00  0.00     0.003 A 
ENDROOT
BRANCH   3  11
HETATM   11  O   UNL     1      61.966  12.085   4.761  1.00  0.00    -0.344 OA
HETATM   12  H   UNL     1      61.230  12.030   4.184  1.00  0.00     0.219 HD
ENDBRANCH   3  11
TORSDOF 1
ENDMDL
MODEL 4
REMARK VINA RESULT:      -5.0      1.876      2.637
REMARK  1 active torsions:
REMARK  status: ('A' for Active; 'I' for Inactive)
REMARK    1  A    between atoms: C_3  and  O_7 
ROOT
HETATM    1  N   UNL     1      63.523   9.248   5.760  1.00  0.00    -0.238 N 
ATOM      2  HN  UNL     1      63.920   8.998   6.665  1.00  0.00     0.197 HD
HETATM    3  C   UNL     1      63.047  10.427   5.373  1.00  0.00     0.173 A 
HETATM    4  C   UNL     1      62.565  10.454   4.061  1.00  0.00     0.052 A 
HETATM    5  O   UNL     1      63.355   8.430   4.638  1.00  0.00    -0.235 OA
HETATM    6  C   UNL     1      62.782   9.155   3.631  1.00  0.00     0.113 A 
HETATM    7  C   UNL     1      61.983  11.381   3.186  1.00  0.00     0.019 A 
HETATM    8  C   UNL     1      62.455   8.693   2.358  1.00  0.00     0.040 A 
HETATM    9  C   UNL     1      61.641  10.949   1.897  1.00  0.00     0.001 A 
HETATM   10  C   UNL     1      61.874   9.629   1.493  1.00  0.00     0.003 A 
ENDROOT
BRANCH   3  11
HETATM   11  O   UNL     1      63.084  11.414   6.270  1.00  0.00    -0.344 OA
HETATM   12  H   UNL     1      63.553  12.202   6.079  1.00  0.00     0.219 HD
ENDBRANCH   3  11
TORSDOF 1
ENDMDL
MODEL 5
REMARK VINA RESULT:      -4.8      1.697      2.064
REMARK  1 active torsions:
REMARK  status: ('A' for Active; 'I' for Inactive)
REMARK    1  A    between atoms: C_3  and  O_7 
ROOT
HETATM    1  N   UNL     1      61.493  11.319   2.347  1.00  0.00    -0.238 N 
ATOM      2  HN  UNL     1      61.057  12.171   1.995  1.00  0.00     0.197 HD
HETATM    3  C   UNL     1      62.044  11.115   3.539  1.00  0.00     0.173 A 
HETATM    4  C   UNL     1      62.565   9.831   3.723  1.00  0.00     0.052 A 
HETATM    5  O   UNL     1      61.651  10.097   1.686  1.00  0.00    -0.235 OA
HETATM    6  C   UNL     1      62.292   9.216   2.512  1.00  0.00     0.113 A 
HETATM    7  C   UNL     1      63.222   9.109   4.729  1.00  0.00     0.019 A 
HETATM    8  C   UNL     1      62.631   7.898   2.216  1.00  0.00     0.040 A 
HETATM    9  C   UNL     1      63.579   7.780   4.463  1.00  0.00     0.001 A 
HETATM   10  C   UNL     1      63.288   7.187   3.229  1.00  0.00     0.003 A 
ENDROOT
BRANCH   3  11
HETATM   11  O   UNL     1      62.033  12.142   4.391  1.00  0.00    -0.344 OA
HETATM   12  H   UNL     1      62.724  12.774   4.371  1.00  0.00     0.219 HD
ENDBRANCH   3  11
TORSDOF 1
ENDMDL
MODEL 6
REMARK VINA RESULT:      -4.4      2.273      3.159
REMARK  1 active torsions:
REMARK  status: ('A' for Active; 'I' for Inactive)
REMARK    1  A    between atoms: C_3  and  O_7 
ROOT
HETATM    1  N   UNL     1      65.069   8.717   5.846  1.00  0.00    -0.238 N 
ATOM      2  HN  UNL     1      65.808   8.444   6.494  1.00  0.00     0.197 HD
HETATM    3  C   UNL     1      64.592   8.031   4.812  1.00  0.00     0.173 A 
HETATM    4  C   UNL     1      63.573   8.680   4.109  1.00  0.00     0.052 A 
HETATM    5  O   UNL     1      64.324   9.901   5.840  1.00  0.00    -0.235 OA
HETATM    6  C   UNL     1      63.436   9.871   4.802  1.00  0.00     0.113 A 
HETATM    7  C   UNL     1      62.756   8.432   2.997  1.00  0.00     0.019 A 
HETATM    8  C   UNL     1      62.521  10.865   4.464  1.00  0.00     0.040 A 
HETATM    9  C   UNL     1      61.825   9.412   2.629  1.00  0.00     0.001 A 
HETATM   10  C   UNL     1      61.710  10.606   3.351  1.00  0.00     0.003 A 
ENDROOT
BRANCH   3  11
HETATM   11  O   UNL     1      65.139   6.836   4.580  1.00  0.00    -0.344 OA
HETATM   12  H   UNL     1      65.766   6.734   3.892  1.00  0.00     0.219 HD
ENDBRANCH   3  11
TORSDOF 1
ENDMDL
MODEL 7
REMARK VINA RESULT:      -4.4      2.609      3.314
REMARK  1 active torsions:
REMARK  status: ('A' for Active; 'I' for Inactive)
REMARK    1  A    between atoms: C_3  and  O_7 
ROOT
HETATM    1  N   UNL     1      63.598   7.091   4.142  1.00  0.00    -0.238 N 
ATOM      2  HN  UNL     1      64.002   6.229   4.508  1.00  0.00     0.197 HD
HETATM    3  C   UNL     1      63.265   8.188   4.815  1.00  0.00     0.173 A 
HETATM    4  C   UNL     1      62.726   9.209   4.026  1.00  0.00     0.052 A 
HETATM    5  O   UNL     1      63.264   7.391   2.817  1.00  0.00    -0.235 OA
HETATM    6  C   UNL     1      62.744   8.654   2.757  1.00  0.00     0.113 A 
HETATM    7  C   UNL     1      62.231  10.508   4.202  1.00  0.00     0.019 A 
HETATM    8  C   UNL     1      62.295   9.312   1.615  1.00  0.00     0.040 A 
HETATM    9  C   UNL     1      61.770  11.199   3.074  1.00  0.00     0.001 A 
HETATM   10  C   UNL     1      61.801  10.610   1.804  1.00  0.00     0.003 A 
ENDROOT
BRANCH   3  11
HETATM   11  O   UNL     1      63.481   8.175   6.131  1.00  0.00    -0.344 OA
HETATM   12  H   UNL     1      63.931   7.453   6.524  1.00  0.00     0.219 HD
ENDBRANCH   3  11
TORSDOF 1
ENDMDL
MODEL 8
REMARK VINA RESULT:      -4.4      3.097      3.903
REMARK  1 active torsions:
REMARK  status: ('A' for Active; 'I' for Inactive)
REMARK    1  A    between atoms: C_3  and  O_7 
ROOT
HETATM    1  N   UNL     1      66.807   8.624   6.815  1.00  0.00    -0.238 N 
ATOM      2  HN  UNL     1      67.388   8.975   7.577  1.00  0.00     0.197 HD
HETATM    3  C   UNL     1      66.994   7.535   6.078  1.00  0.00     0.173 A 
HETATM    4  C   UNL     1      66.016   7.322   5.102  1.00  0.00     0.052 A 
HETATM    5  O   UNL     1      65.628   9.180   6.307  1.00  0.00    -0.235 OA
HETATM    6  C   UNL     1      65.164   8.399   5.286  1.00  0.00     0.113 A 
HETATM    7  C   UNL     1      65.733   6.383   4.101  1.00  0.00     0.019 A 
HETATM    8  C   UNL     1      64.017   8.620   4.528  1.00  0.00     0.040 A 
HETATM    9  C   UNL     1      64.586   6.576   3.319  1.00  0.00     0.001 A 
HETATM   10  C   UNL     1      63.745   7.675   3.530  1.00  0.00     0.003 A 
ENDROOT
BRANCH   3  11
HETATM   11  O   UNL     1      68.073   6.799   6.355  1.00  0.00    -0.344 OA
HETATM   12  H   UNL     1      68.538   6.372   5.663  1.00  0.00     0.219 HD
ENDBRANCH   3  11
TORSDOF 1
ENDMDL
MODEL 9
REMARK VINA RESULT:      -4.3      1.800      3.148
REMARK  1 active torsions:
REMARK  status: ('A' for Active; 'I' for Inactive)
REMARK    1  A    between atoms: C_3  and  O_7 
ROOT
HETATM    1  N   UNL     1      61.313  10.947   2.183  1.00  0.00    -0.238 N 
ATOM      2  HN  UNL     1      60.759  11.546   1.571  1.00  0.00     0.197 HD
HETATM    3  C   UNL     1      61.826   9.751   1.911  1.00  0.00     0.173 A 
HETATM    4  C   UNL     1      62.540   9.176   2.966  1.00  0.00     0.052 A 
HETATM    5  O   UNL     1      61.708  11.194   3.502  1.00  0.00    -0.235 OA
HETATM    6  C   UNL     1      62.438  10.133   3.961  1.00  0.00     0.113 A 
HETATM    7  C   UNL     1      63.252   7.994   3.218  1.00  0.00     0.019 A 
HETATM    8  C   UNL     1      63.005  10.003   5.226  1.00  0.00     0.040 A 
HETATM    9  C   UNL     1      63.835   7.831   4.482  1.00  0.00     0.001 A 
HETATM   10  C   UNL     1      63.713   8.818   5.466  1.00  0.00     0.003 A 
ENDROOT
BRANCH   3  11
HETATM   11  O   UNL     1      61.595   9.261   0.692  1.00  0.00    -0.344 OA
HETATM   12  H   UNL     1      61.763   9.788  -0.064  1.00  0.00     0.219 HD
ENDBRANCH   3  11
TORSDOF 1
ENDMDL
