MODEL 1
REMARK VINA RESULT:      -4.3      0.000      0.000
REMARK  4 active torsions:
REMARK  status: ('A' for Active; 'I' for Inactive)
REMARK    1  A    between atoms: N_1  and  C_4 
REMARK    2  A    between atoms: C_2  and  O_3 
REMARK    3  A    between atoms: O_3  and  C_5 
REMARK    4  A    between atoms: C_4  and  C_5 
ROOT
HETATM    1  O   UNL     1      64.057   8.670   5.786  1.00  0.00    -0.350 OA
ENDROOT
BRANCH   1   2
HETATM    2  C   UNL     1      63.296   9.292   4.831  1.00  0.00     0.068 A 
HETATM    3  C   UNL     1      62.952   8.738   3.596  1.00  0.00     0.037 A 
HETATM    4  C   UNL     1      62.234   9.485   2.661  1.00  0.00     0.003 A 
HETATM    5  C   UNL     1      61.835  10.785   2.971  1.00  0.00     0.000 A 
HETATM    6  C   UNL     1      62.129  11.324   4.221  1.00  0.00     0.003 A 
HETATM    7  C   UNL     1      62.852  10.576   5.152  1.00  0.00     0.037 A 
ENDBRANCH   1   2
BRANCH   1   8
HETATM    8  C   UNL     1      65.384   8.320   5.370  1.00  0.00     0.203 C 
BRANCH   8   9
HETATM    9  C   UNL     1      66.119   7.617   6.517  1.00  0.00     0.256 C 
BRANCH   9  10
HETATM   10  N   UNL     1      67.058   8.503   7.216  1.00  0.00    -0.077 N 
HETATM   11  H   UNL     1      66.647   9.432   7.306  1.00  0.00     0.274 HD
HETATM   12  H   UNL     1      67.927   8.564   6.686  1.00  0.00     0.274 HD
HETATM   13  H   UNL     1      67.252   8.127   8.145  1.00  0.00     0.274 HD
ENDBRANCH   9  10
ENDBRANCH   8   9
ENDBRANCH   1   8
TORSDOF 4
ENDMDL
MODEL 2
REMARK VINA RESULT:      -4.0      1.568      2.229
REMARK  4 active torsions:
REMARK  status: ('A' for Active; 'I' for Inactive)
REMARK    1  A    between atoms: N_1  and  C_4 
REMARK    2  A    between atoms: C_2  and  O_3 
REMARK    3  A    between atoms: O_3  and  C_5 
REMARK    4  A    between atoms: C_4  and  C_5 
ROOT
HETATM    1  O   UNL     1      62.869   8.768   5.312  1.00  0.00    -0.350 OA
ENDROOT
BRANCH   1   2
HETATM    2  C   UNL     1      62.554   9.492   4.191  1.00  0.00     0.068 A 
HETATM    3  C   UNL     1      62.216  10.847   4.183  1.00  0.00     0.037 A 
HETATM    4  C   UNL     1      61.838  11.473   2.994  1.00  0.00     0.003 A 
HETATM    5  C   UNL     1      61.821  10.749   1.803  1.00  0.00     0.000 A 
HETATM    6  C   UNL     1      62.207   9.411   1.796  1.00  0.00     0.003 A 
HETATM    7  C   UNL     1      62.581   8.785   2.987  1.00  0.00     0.037 A 
ENDBRANCH   1   2
BRANCH   1   8
HETATM    8  C   UNL     1      63.414   7.466   5.060  1.00  0.00     0.203 C 
BRANCH   8   9
HETATM    9  C   UNL     1      63.617   6.723   6.385  1.00  0.00     0.256 C 
BRANCH   9  10
HETATM   10  N   UNL     1      64.864   7.101   7.063  1.00  0.00    -0.077 N 
HETATM   11  H   UNL     1      65.424   6.266   7.234  1.00  0.00     0.274 HD
HETATM   12  H   UNL     1      64.644   7.552   7.950  1.00  0.00     0.274 HD
HETATM   13  H   UNL     1      65.388   7.747   6.473  1.00  0.00     0.274 HD
ENDBRANCH   9  10
ENDBRANCH   8   9
ENDBRANCH   1   8
TORSDOF 4
ENDMDL
MODEL 3
REMARK VINA RESULT:      -3.9      3.661      5.006
REMARK  4 active torsions:
REMARK  status: ('A' for Active; 'I' for Inactive)
REMARK    1  A    between atoms: N_1  and  C_4 
REMARK    2  A    between atoms: C_2  and  O_3 
REMARK    3  A    between atoms: O_3  and  C_5 
REMARK    4  A    between atoms: C_4  and  C_5 
ROOT
HETATM    1  O   UNL     1      62.543   8.259   1.813  1.00  0.00    -0.350 OA
ENDROOT
BRANCH   1   2
HETATM    2  C   UNL     1      62.595   9.055   2.929  1.00  0.00     0.068 A 
HETATM    3  C   UNL     1      61.951  10.287   3.062  1.00  0.00     0.037 A 
HETATM    4  C   UNL     1      62.129  11.056   4.214  1.00  0.00     0.003 A 
HETATM    5  C   UNL     1      62.934  10.580   5.249  1.00  0.00     0.000 A 
HETATM    6  C   UNL     1      63.536   9.329   5.143  1.00  0.00     0.003 A 
HETATM    7  C   UNL     1      63.361   8.564   3.988  1.00  0.00     0.037 A 
ENDBRANCH   1   2
BRANCH   1   8
HETATM    8  C   UNL     1      61.750   8.776   0.737  1.00  0.00     0.203 C 
BRANCH   8   9
HETATM    9  C   UNL     1      60.501   7.908   0.549  1.00  0.00     0.256 C 
BRANCH   9  10
HETATM   10  N   UNL     1      59.280   8.556   1.045  1.00  0.00    -0.077 N 
HETATM   11  H   UNL     1      59.076   9.378   0.476  1.00  0.00     0.274 HD
HETATM   12  H   UNL     1      59.415   8.838   2.015  1.00  0.00     0.274 HD
HETATM   13  H   UNL     1      58.500   7.901   0.986  1.00  0.00     0.274 HD
ENDBRANCH   9  10
ENDBRANCH   8   9
ENDBRANCH   1   8
TORSDOF 4
ENDMDL
MODEL 4
REMARK VINA RESULT:      -3.8      2.537      3.642
REMARK  4 active torsions:
REMARK  status: ('A' for Active; 'I' for Inactive)
REMARK    1  A    between atoms: N_1  and  C_4 
REMARK    2  A    between atoms: C_2  and  O_3 
REMARK    3  A    between atoms: O_3  and  C_5 
REMARK    4  A    between atoms: C_4  and  C_5 
ROOT
HETATM    1  O   UNL     1      61.772   9.566   3.977  1.00  0.00    -0.350 OA
ENDROOT
BRANCH   1   2
HETATM    2  C   UNL     1      62.064   8.799   2.879  1.00  0.00     0.068 A 
HETATM    3  C   UNL     1      62.573   7.500   2.922  1.00  0.00     0.037 A 
HETATM    4  C   UNL     1      62.908   6.832   1.743  1.00  0.00     0.003 A 
HETATM    5  C   UNL     1      62.710   7.456   0.512  1.00  0.00     0.000 A 
HETATM    6  C   UNL     1      62.153   8.732   0.460  1.00  0.00     0.003 A 
HETATM    7  C   UNL     1      61.824   9.399   1.641  1.00  0.00     0.037 A 
ENDBRANCH   1   2
BRANCH   1   8
HETATM    8  C   UNL     1      62.875   9.797   4.864  1.00  0.00     0.203 C 
BRANCH   8   9
HETATM    9  C   UNL     1      62.774  11.205   5.461  1.00  0.00     0.256 C 
BRANCH   9  10
HETATM   10  N   UNL     1      63.859  11.500   6.406  1.00  0.00    -0.077 N 
HETATM   11  H   UNL     1      64.755  11.461   5.918  1.00  0.00     0.274 HD
HETATM   12  H   UNL     1      63.851  10.812   7.158  1.00  0.00     0.274 HD
HETATM   13  H   UNL     1      63.726  12.433   6.796  1.00  0.00     0.274 HD
ENDBRANCH   9  10
ENDBRANCH   8   9
ENDBRANCH   1   8
TORSDOF 4
ENDMDL
MODEL 5
REMARK VINA RESULT:      -3.7      2.497      5.280
REMARK  4 active torsions:
REMARK  status: ('A' for Active; 'I' for Inactive)
REMARK    1  A    between atoms: N_1  and  C_4 
REMARK    2  A    between atoms: C_2  and  O_3 
REMARK    3  A    between atoms: O_3  and  C_5 
REMARK    4  A    between atoms: C_4  and  C_5 
ROOT
HETATM    1  O   UNL     1      65.130   9.209   5.796  1.00  0.00    -0.350 OA
ENDROOT
BRANCH   1   2
HETATM    2  C   UNL     1      65.918   8.088   5.765  1.00  0.00     0.068 A 
HETATM    3  C   UNL     1      66.666   7.606   6.841  1.00  0.00     0.037 A 
HETATM    4  C   UNL     1      67.498   6.496   6.683  1.00  0.00     0.003 A 
HETATM    5  C   UNL     1      67.565   5.849   5.450  1.00  0.00     0.000 A 
HETATM    6  C   UNL     1      66.782   6.293   4.388  1.00  0.00     0.003 A 
HETATM    7  C   UNL     1      65.954   7.406   4.547  1.00  0.00     0.037 A 
ENDBRANCH   1   2
BRANCH   1   8
HETATM    8  C   UNL     1      63.940   9.135   4.999  1.00  0.00     0.203 C 
BRANCH   8   9
HETATM    9  C   UNL     1      63.047  10.347   5.286  1.00  0.00     0.256 C 
BRANCH   9  10
HETATM   10  N   UNL     1      62.145  10.664   4.171  1.00  0.00    -0.077 N 
HETATM   11  H   UNL     1      61.345  11.192   4.520  1.00  0.00     0.274 HD
HETATM   12  H   UNL     1      61.820   9.798   3.742  1.00  0.00     0.274 HD
HETATM   13  H   UNL     1      62.644  11.222   3.478  1.00  0.00     0.274 HD
ENDBRANCH   9  10
ENDBRANCH   8   9
ENDBRANCH   1   8
TORSDOF 4
ENDMDL
MODEL 6
REMARK VINA RESULT:      -3.6      2.552      2.719
REMARK  4 active torsions:
REMARK  status: ('A' for Active; 'I' for Inactive)
REMARK    1  A    between atoms: N_1  and  C_4 
REMARK    2  A    between atoms: C_2  and  O_3 
REMARK    3  A    between atoms: O_3  and  C_5 
REMARK    4  A    between atoms: C_4  and  C_5 
ROOT
HETATM    1  O   UNL     1      63.239   7.921   4.082  1.00  0.00    -0.350 OA
ENDROOT
BRANCH   1   2
HETATM    2  C   UNL     1      62.704   9.042   3.504  1.00  0.00     0.068 A 
HETATM    3  C   UNL     1      62.376   9.166   2.152  1.00  0.00     0.037 A 
HETATM    4  C   UNL     1      61.905  10.379   1.647  1.00  0.00     0.003 A 
HETATM    5  C   UNL     1      61.737  11.468   2.501  1.00  0.00     0.000 A 
HETATM    6  C   UNL     1      62.013  11.336   3.860  1.00  0.00     0.003 A 
HETATM    7  C   UNL     1      62.489  10.123   4.362  1.00  0.00     0.037 A 
ENDBRANCH   1   2
BRANCH   1   8
HETATM    8  C   UNL     1      62.413   6.751   4.015  1.00  0.00     0.203 C 
BRANCH   8   9
HETATM    9  C   UNL     1      61.584   6.627   5.298  1.00  0.00     0.256 C 
BRANCH   9  10
HETATM   10  N   UNL     1      62.291   7.131   6.482  1.00  0.00    -0.077 N 
HETATM   11  H   UNL     1      62.124   8.133   6.577  1.00  0.00     0.274 HD
HETATM   12  H   UNL     1      63.290   6.960   6.379  1.00  0.00     0.274 HD
HETATM   13  H   UNL     1      61.947   6.650   7.314  1.00  0.00     0.274 HD
ENDBRANCH   9  10
ENDBRANCH   8   9
ENDBRANCH   1   8
TORSDOF 4
ENDMDL
MODEL 7
REMARK VINA RESULT:      -3.5      1.930      2.285
REMARK  4 active torsions:
REMARK  status: ('A' for Active; 'I' for Inactive)
REMARK    1  A    between atoms: N_1  and  C_4 
REMARK    2  A    between atoms: C_2  and  O_3 
REMARK    3  A    between atoms: O_3  and  C_5 
REMARK    4  A    between atoms: C_4  and  C_5 
ROOT
HETATM    1  O   UNL     1      63.656   7.507   3.486  1.00  0.00    -0.350 OA
ENDROOT
BRANCH   1   2
HETATM    2  C   UNL     1      63.106   8.734   3.756  1.00  0.00     0.068 A 
HETATM    3  C   UNL     1      62.252   9.433   2.900  1.00  0.00     0.037 A 
HETATM    4  C   UNL     1      61.805  10.711   3.237  1.00  0.00     0.003 A 
HETATM    5  C   UNL     1      62.195  11.286   4.446  1.00  0.00     0.000 A 
HETATM    6  C   UNL     1      63.005  10.573   5.327  1.00  0.00     0.003 A 
HETATM    7  C   UNL     1      63.454   9.296   4.986  1.00  0.00     0.037 A 
ENDBRANCH   1   2
BRANCH   1   8
HETATM    8  C   UNL     1      64.906   7.247   4.138  1.00  0.00     0.203 C 
BRANCH   8   9
HETATM    9  C   UNL     1      65.603   6.057   3.468  1.00  0.00     0.256 C 
BRANCH   9  10
HETATM   10  N   UNL     1      67.053   6.044   3.700  1.00  0.00    -0.077 N 
HETATM   11  H   UNL     1      67.487   5.344   3.099  1.00  0.00     0.274 HD
HETATM   12  H   UNL     1      67.239   5.817   4.677  1.00  0.00     0.274 HD
HETATM   13  H   UNL     1      67.439   6.964   3.485  1.00  0.00     0.274 HD
ENDBRANCH   9  10
ENDBRANCH   8   9
ENDBRANCH   1   8
TORSDOF 4
ENDMDL
MODEL 8
REMARK VINA RESULT:      -3.4      1.681      2.246
REMARK  4 active torsions:
REMARK  status: ('A' for Active; 'I' for Inactive)
REMARK    1  A    between atoms: N_1  and  C_4 
REMARK    2  A    between atoms: C_2  and  O_3 
REMARK    3  A    between atoms: O_3  and  C_5 
REMARK    4  A    between atoms: C_4  and  C_5 
ROOT
HETATM    1  O   UNL     1      64.416   7.619   6.803  1.00  0.00    -0.350 OA
ENDROOT
BRANCH   1   2
HETATM    2  C   UNL     1      63.521   7.716   5.770  1.00  0.00     0.068 A 
HETATM    3  C   UNL     1      62.323   7.003   5.680  1.00  0.00     0.037 A 
HETATM    4  C   UNL     1      61.516   7.117   4.546  1.00  0.00     0.003 A 
HETATM    5  C   UNL     1      61.895   7.966   3.507  1.00  0.00     0.000 A 
HETATM    6  C   UNL     1      63.061   8.719   3.614  1.00  0.00     0.003 A 
HETATM    7  C   UNL     1      63.869   8.600   4.747  1.00  0.00     0.037 A 
ENDBRANCH   1   2
BRANCH   1   8
HETATM    8  C   UNL     1      65.334   6.522   6.710  1.00  0.00     0.203 C 
BRANCH   8   9
HETATM    9  C   UNL     1      66.773   7.041   6.805  1.00  0.00     0.256 C 
BRANCH   9  10
HETATM   10  N   UNL     1      66.841   8.487   7.053  1.00  0.00    -0.077 N 
HETATM   11  H   UNL     1      65.896   8.860   7.147  1.00  0.00     0.274 HD
HETATM   12  H   UNL     1      67.312   8.944   6.273  1.00  0.00     0.274 HD
HETATM   13  H   UNL     1      67.361   8.659   7.914  1.00  0.00     0.274 HD
ENDBRANCH   9  10
ENDBRANCH   8   9
ENDBRANCH   1   8
TORSDOF 4
ENDMDL
MODEL 9
REMARK VINA RESULT:      -3.4      3.418      3.884
REMARK  4 active torsions:
REMARK  status: ('A' for Active; 'I' for Inactive)
REMARK    1  A    between atoms: N_1  and  C_4 
REMARK    2  A    between atoms: C_2  and  O_3 
REMARK    3  A    between atoms: O_3  and  C_5 
REMARK    4  A    between atoms: C_4  and  C_5 
ROOT
HETATM    1  O   UNL     1      62.732   7.753   2.155  1.00  0.00    -0.350 OA
ENDROOT
BRANCH   1   2
HETATM    2  C   UNL     1      62.503   9.026   2.607  1.00  0.00     0.068 A 
HETATM    3  C   UNL     1      62.658   9.445   3.931  1.00  0.00     0.037 A 
HETATM    4  C   UNL     1      62.327  10.749   4.302  1.00  0.00     0.003 A 
HETATM    5  C   UNL     1      61.860  11.647   3.343  1.00  0.00     0.000 A 
HETATM    6  C   UNL     1      61.753  11.251   2.013  1.00  0.00     0.003 A 
HETATM    7  C   UNL     1      62.081   9.945   1.644  1.00  0.00     0.037 A 
ENDBRANCH   1   2
BRANCH   1   8
HETATM    8  C   UNL     1      63.265   6.849   3.133  1.00  0.00     0.203 C 
BRANCH   8   9
HETATM    9  C   UNL     1      62.239   5.754   3.442  1.00  0.00     0.256 C 
BRANCH   9  10
HETATM   10  N   UNL     1      61.545   5.270   2.241  1.00  0.00    -0.077 N 
HETATM   11  H   UNL     1      60.601   4.976   2.488  1.00  0.00     0.274 HD
HETATM   12  H   UNL     1      62.057   4.480   1.848  1.00  0.00     0.274 HD
HETATM   13  H   UNL     1      61.497   6.021   1.551  1.00  0.00     0.274 HD
ENDBRANCH   9  10
ENDBRANCH   8   9
ENDBRANCH   1   8
TORSDOF 4
ENDMDL
