MODEL 1
REMARK VINA RESULT:      -5.0      0.000      0.000
REMARK  2 active torsions:
REMARK  status: ('A' for Active; 'I' for Inactive)
REMARK    1  A    between atoms: C_1  and  C_4 
REMARK    2  A    between atoms: C_2  and  C_3 
ROOT
HETATM    1  C   UNL     1      62.806   9.361   4.094  1.00  0.00     0.071 A 
HETATM    2  C   UNL     1      62.858   8.531   2.970  1.00  0.00     0.067 A 
HETATM    3  N   UNL     1      61.659  11.076   2.822  1.00  0.00    -0.374 N 
ATOM      4  HN  UNL     1      61.226  11.998   2.775  1.00  0.00     0.164 HD
HETATM    5  C   UNL     1      62.215  10.615   3.961  1.00  0.00     0.106 A 
HETATM    6  C   UNL     1      62.275   9.007   1.777  1.00  0.00     0.034 A 
HETATM    7  C   UNL     1      61.702  10.265   1.749  1.00  0.00     0.088 A 
ENDROOT
BRANCH   2   8
HETATM    8  C   UNL     1      63.506   7.174   2.916  1.00  0.00     0.418 C 
HETATM    9  F   UNL     1      64.801   7.099   3.311  1.00  0.00    -0.166 F 
HETATM   10  F   UNL     1      62.819   6.252   3.647  1.00  0.00    -0.166 F 
HETATM   11  F   UNL     1      63.509   6.685   1.639  1.00  0.00    -0.166 F 
ENDBRANCH   2   8
BRANCH   1  12
HETATM   12  C   UNL     1      63.342   9.049   5.428  1.00  0.00     0.211 C 
HETATM   13  O   UNL     1      62.810   8.333   6.254  1.00  0.00    -0.644 OA
HETATM   14  O   UNL     1      64.569   9.553   5.604  1.00  0.00    -0.644 OA
ENDBRANCH   1  12
TORSDOF 2
ENDMDL
MODEL 2
REMARK VINA RESULT:      -4.8      2.762      3.578
REMARK  2 active torsions:
REMARK  status: ('A' for Active; 'I' for Inactive)
REMARK    1  A    between atoms: C_1  and  C_4 
REMARK    2  A    between atoms: C_2  and  C_3 
ROOT
HETATM    1  C   UNL     1      62.774   8.587   3.717  1.00  0.00     0.071 A 
HETATM    2  C   UNL     1      62.294   9.779   3.164  1.00  0.00     0.067 A 
HETATM    3  N   UNL     1      63.194   9.694   5.832  1.00  0.00    -0.374 N 
ATOM      4  HN  UNL     1      63.520   9.655   6.798  1.00  0.00     0.164 HD
HETATM    5  C   UNL     1      63.220   8.605   5.036  1.00  0.00     0.106 A 
HETATM    6  C   UNL     1      62.262  10.919   3.994  1.00  0.00     0.034 A 
HETATM    7  C   UNL     1      62.718  10.832   5.296  1.00  0.00     0.088 A 
ENDROOT
BRANCH   2   8
HETATM    8  C   UNL     1      61.828   9.957   1.745  1.00  0.00     0.418 C 
HETATM    9  F   UNL     1      62.697   9.601   0.767  1.00  0.00    -0.166 F 
HETATM   10  F   UNL     1      60.668   9.284   1.502  1.00  0.00    -0.166 F 
HETATM   11  F   UNL     1      61.539  11.268   1.487  1.00  0.00    -0.166 F 
ENDBRANCH   2   8
BRANCH   1  12
HETATM   12  C   UNL     1      62.879   7.292   3.028  1.00  0.00     0.211 C 
HETATM   13  O   UNL     1      63.878   6.855   2.490  1.00  0.00    -0.644 OA
HETATM   14  O   UNL     1      61.762   6.565   3.159  1.00  0.00    -0.644 OA
ENDBRANCH   1  12
TORSDOF 2
ENDMDL
MODEL 3
REMARK VINA RESULT:      -4.6      2.450      3.051
REMARK  2 active torsions:
REMARK  status: ('A' for Active; 'I' for Inactive)
REMARK    1  A    between atoms: C_1  and  C_4 
REMARK    2  A    between atoms: C_2  and  C_3 
ROOT
HETATM    1  C   UNL     1      62.188   9.572   2.491  1.00  0.00     0.071 A 
HETATM    2  C   UNL     1      62.866   8.527   3.127  1.00  0.00     0.067 A 
HETATM    3  N   UNL     1      61.919   8.230   0.491  1.00  0.00    -0.374 N 
ATOM      4  HN  UNL     1      61.573   8.130  -0.464  1.00  0.00     0.164 HD
HETATM    5  C   UNL     1      61.754   9.376   1.182  1.00  0.00     0.106 A 
HETATM    6  C   UNL     1      63.038   7.325   2.409  1.00  0.00     0.034 A 
HETATM    7  C   UNL     1      62.560   7.226   1.115  1.00  0.00     0.088 A 
ENDROOT
BRANCH   2   8
HETATM    8  C   UNL     1      63.451   8.582   4.511  1.00  0.00     0.418 C 
HETATM    9  F   UNL     1      64.240   9.646   4.800  1.00  0.00    -0.166 F 
HETATM   10  F   UNL     1      62.488   8.536   5.474  1.00  0.00    -0.166 F 
HETATM   11  F   UNL     1      64.244   7.493   4.750  1.00  0.00    -0.166 F 
ENDBRANCH   2   8
BRANCH   1  12
HETATM   12  C   UNL     1      61.896  10.894   3.066  1.00  0.00     0.211 C 
HETATM   13  O   UNL     1      61.633  11.116   4.232  1.00  0.00    -0.644 OA
HETATM   14  O   UNL     1      62.071  11.876   2.174  1.00  0.00    -0.644 OA
ENDBRANCH   1  12
TORSDOF 2
ENDMDL
MODEL 4
REMARK VINA RESULT:      -4.5      2.662      3.393
REMARK  2 active torsions:
REMARK  status: ('A' for Active; 'I' for Inactive)
REMARK    1  A    between atoms: C_1  and  C_4 
REMARK    2  A    between atoms: C_2  and  C_3 
ROOT
HETATM    1  C   UNL     1      63.618   8.121   3.983  1.00  0.00     0.071 A 
HETATM    2  C   UNL     1      62.740   8.705   3.065  1.00  0.00     0.067 A 
HETATM    3  N   UNL     1      64.004   6.256   2.483  1.00  0.00    -0.374 N 
ATOM      4  HN  UNL     1      64.466   5.369   2.279  1.00  0.00     0.164 HD
HETATM    5  C   UNL     1      64.205   6.902   3.650  1.00  0.00     0.106 A 
HETATM    6  C   UNL     1      62.529   8.034   1.842  1.00  0.00     0.034 A 
HETATM    7  C   UNL     1      63.168   6.832   1.601  1.00  0.00     0.088 A 
ENDROOT
BRANCH   2   8
HETATM    8  C   UNL     1      61.977   9.983   3.280  1.00  0.00     0.418 C 
HETATM    9  F   UNL     1      62.596  10.952   3.998  1.00  0.00    -0.166 F 
HETATM   10  F   UNL     1      61.594  10.552   2.103  1.00  0.00    -0.166 F 
HETATM   11  F   UNL     1      60.811   9.748   3.957  1.00  0.00    -0.166 F 
ENDBRANCH   2   8
BRANCH   1  12
HETATM   12  C   UNL     1      63.980   8.661   5.302  1.00  0.00     0.211 C 
HETATM   13  O   UNL     1      64.928   9.386   5.534  1.00  0.00    -0.644 OA
HETATM   14  O   UNL     1      63.066   8.361   6.233  1.00  0.00    -0.644 OA
ENDBRANCH   1  12
TORSDOF 2
ENDMDL
MODEL 5
REMARK VINA RESULT:      -4.3      2.408      3.323
REMARK  2 active torsions:
REMARK  status: ('A' for Active; 'I' for Inactive)
REMARK    1  A    between atoms: C_1  and  C_4 
REMARK    2  A    between atoms: C_2  and  C_3 
ROOT
HETATM    1  C   UNL     1      62.598   8.706   2.974  1.00  0.00     0.071 A 
HETATM    2  C   UNL     1      62.619   9.725   3.932  1.00  0.00     0.067 A 
HETATM    3  N   UNL     1      61.535  10.184   1.373  1.00  0.00    -0.374 N 
ATOM      4  HN  UNL     1      61.145  10.343   0.443  1.00  0.00     0.164 HD
HETATM    5  C   UNL     1      62.038   8.984   1.729  1.00  0.00     0.106 A 
HETATM    6  C   UNL     1      62.097  10.983   3.562  1.00  0.00     0.034 A 
HETATM    7  C   UNL     1      61.571  11.161   2.297  1.00  0.00     0.088 A 
ENDROOT
BRANCH   2   8
HETATM    8  C   UNL     1      63.131   9.588   5.339  1.00  0.00     0.418 C 
HETATM    9  F   UNL     1      62.624   8.571   6.079  1.00  0.00    -0.166 F 
HETATM   10  F   UNL     1      64.488   9.461   5.378  1.00  0.00    -0.166 F 
HETATM   11  F   UNL     1      62.859  10.712   6.070  1.00  0.00    -0.166 F 
ENDBRANCH   2   8
BRANCH   1  12
HETATM   12  C   UNL     1      63.100   7.336   3.153  1.00  0.00     0.211 C 
HETATM   13  O   UNL     1      64.270   7.004   3.150  1.00  0.00    -0.644 OA
HETATM   14  O   UNL     1      62.116   6.478   3.449  1.00  0.00    -0.644 OA
ENDBRANCH   1  12
TORSDOF 2
ENDMDL
MODEL 6
REMARK VINA RESULT:      -4.2      1.781      2.379
REMARK  2 active torsions:
REMARK  status: ('A' for Active; 'I' for Inactive)
REMARK    1  A    between atoms: C_1  and  C_4 
REMARK    2  A    between atoms: C_2  and  C_3 
ROOT
HETATM    1  C   UNL     1      62.917   9.135   4.390  1.00  0.00     0.071 A 
HETATM    2  C   UNL     1      62.241   9.478   3.215  1.00  0.00     0.067 A 
HETATM    3  N   UNL     1      62.684  11.398   5.226  1.00  0.00    -0.374 N 
ATOM      4  HN  UNL     1      62.848  12.089   5.960  1.00  0.00     0.164 HD
HETATM    5  C   UNL     1      63.121  10.128   5.346  1.00  0.00     0.106 A 
HETATM    6  C   UNL     1      61.779  10.804   3.087  1.00  0.00     0.034 A 
HETATM    7  C   UNL     1      62.024  11.714   4.098  1.00  0.00     0.088 A 
ENDROOT
BRANCH   2   8
HETATM    8  C   UNL     1      61.983   8.553   2.057  1.00  0.00     0.418 C 
HETATM    9  F   UNL     1      61.153   7.505   2.284  1.00  0.00    -0.166 F 
HETATM   10  F   UNL     1      61.487   9.217   0.975  1.00  0.00    -0.166 F 
HETATM   11  F   UNL     1      63.145   7.980   1.620  1.00  0.00    -0.166 F 
ENDBRANCH   2   8
BRANCH   1  12
HETATM   12  C   UNL     1      63.465   7.812   4.722  1.00  0.00     0.211 C 
HETATM   13  O   UNL     1      62.814   6.835   5.039  1.00  0.00    -0.644 OA
HETATM   14  O   UNL     1      64.787   7.754   4.519  1.00  0.00    -0.644 OA
ENDBRANCH   1  12
TORSDOF 2
ENDMDL
MODEL 7
REMARK VINA RESULT:      -4.2      1.888      2.293
REMARK  2 active torsions:
REMARK  status: ('A' for Active; 'I' for Inactive)
REMARK    1  A    between atoms: C_1  and  C_4 
REMARK    2  A    between atoms: C_2  and  C_3 
ROOT
HETATM    1  C   UNL     1      62.501   9.517   4.392  1.00  0.00     0.071 A 
HETATM    2  C   UNL     1      62.098   8.179   4.436  1.00  0.00     0.067 A 
HETATM    3  N   UNL     1      61.386   9.821   2.261  1.00  0.00    -0.374 N 
ATOM      4  HN  UNL     1      61.132  10.423   1.477  1.00  0.00     0.164 HD
HETATM    5  C   UNL     1      62.134  10.280   3.286  1.00  0.00     0.106 A 
HETATM    6  C   UNL     1      61.313   7.696   3.367  1.00  0.00     0.034 A 
HETATM    7  C   UNL     1      60.992   8.537   2.319  1.00  0.00     0.088 A 
ENDROOT
BRANCH   2   8
HETATM    8  C   UNL     1      62.450   7.197   5.520  1.00  0.00     0.418 C 
HETATM    9  F   UNL     1      62.368   7.641   6.798  1.00  0.00    -0.166 F 
HETATM   10  F   UNL     1      61.693   6.066   5.449  1.00  0.00    -0.166 F 
HETATM   11  F   UNL     1      63.742   6.768   5.388  1.00  0.00    -0.166 F 
ENDBRANCH   2   8
BRANCH   1  12
HETATM   12  C   UNL     1      63.309  10.214   5.404  1.00  0.00     0.211 C 
HETATM   13  O   UNL     1      62.901  11.063   6.174  1.00  0.00    -0.644 OA
HETATM   14  O   UNL     1      64.551   9.720   5.479  1.00  0.00    -0.644 OA
ENDBRANCH   1  12
TORSDOF 2
ENDMDL
MODEL 8
REMARK VINA RESULT:      -4.1      3.366      4.348
REMARK  2 active torsions:
REMARK  status: ('A' for Active; 'I' for Inactive)
REMARK    1  A    between atoms: C_1  and  C_4 
REMARK    2  A    between atoms: C_2  and  C_3 
ROOT
HETATM    1  C   UNL     1      63.195   7.911   3.168  1.00  0.00     0.071 A 
HETATM    2  C   UNL     1      63.138   9.054   3.973  1.00  0.00     0.067 A 
HETATM    3  N   UNL     1      65.099   7.081   4.419  1.00  0.00    -0.374 N 
ATOM      4  HN  UNL     1      65.806   6.363   4.575  1.00  0.00     0.164 HD
HETATM    5  C   UNL     1      64.194   6.975   3.424  1.00  0.00     0.106 A 
HETATM    6  C   UNL     1      64.080   9.168   5.017  1.00  0.00     0.034 A 
HETATM    7  C   UNL     1      65.027   8.177   5.195  1.00  0.00     0.088 A 
ENDROOT
BRANCH   2   8
HETATM    8  C   UNL     1      62.166  10.190   3.806  1.00  0.00     0.418 C 
HETATM    9  F   UNL     1      62.250  11.203   4.703  1.00  0.00    -0.166 F 
HETATM   10  F   UNL     1      62.251  10.755   2.569  1.00  0.00    -0.166 F 
HETATM   11  F   UNL     1      60.876   9.748   3.907  1.00  0.00    -0.166 F 
ENDBRANCH   2   8
BRANCH   1  12
HETATM   12  C   UNL     1      62.303   7.597   2.042  1.00  0.00     0.211 C 
HETATM   13  O   UNL     1      62.526   7.843   0.873  1.00  0.00    -0.644 OA
HETATM   14  O   UNL     1      61.239   6.884   2.431  1.00  0.00    -0.644 OA
ENDBRANCH   1  12
TORSDOF 2
ENDMDL
MODEL 9
REMARK VINA RESULT:      -4.1      2.771      3.600
REMARK  2 active torsions:
REMARK  status: ('A' for Active; 'I' for Inactive)
REMARK    1  A    between atoms: C_1  and  C_4 
REMARK    2  A    between atoms: C_2  and  C_3 
ROOT
HETATM    1  C   UNL     1      62.551   9.265   4.177  1.00  0.00     0.071 A 
HETATM    2  C   UNL     1      61.997   7.982   4.225  1.00  0.00     0.067 A 
HETATM    3  N   UNL     1      64.236   8.637   5.803  1.00  0.00    -0.374 N 
ATOM      4  HN  UNL     1      65.048   8.881   6.371  1.00  0.00     0.164 HD
HETATM    5  C   UNL     1      63.650   9.538   4.989  1.00  0.00     0.106 A 
HETATM    6  C   UNL     1      62.609   7.035   5.072  1.00  0.00     0.034 A 
HETATM    7  C   UNL     1      63.704   7.402   5.831  1.00  0.00     0.088 A 
ENDROOT
BRANCH   2   8
HETATM    8  C   UNL     1      60.781   7.529   3.463  1.00  0.00     0.418 C 
HETATM    9  F   UNL     1      60.855   7.574   2.110  1.00  0.00    -0.166 F 
HETATM   10  F   UNL     1      60.418   6.257   3.793  1.00  0.00    -0.166 F 
HETATM   11  F   UNL     1      59.696   8.300   3.773  1.00  0.00    -0.166 F 
ENDBRANCH   2   8
BRANCH   1  12
HETATM   12  C   UNL     1      62.073  10.388   3.356  1.00  0.00     0.211 C 
HETATM   13  O   UNL     1      61.970  10.385   2.145  1.00  0.00    -0.644 OA
HETATM   14  O   UNL     1      61.635  11.405   4.108  1.00  0.00    -0.644 OA
ENDBRANCH   1  12
TORSDOF 2
ENDMDL
