MODEL 1
REMARK VINA RESULT:      -4.6      0.000      0.000
REMARK  2 active torsions:
REMARK  status: ('A' for Active; 'I' for Inactive)
REMARK    1  A    between atoms: C_1  and  C_2 
REMARK    2  A    between atoms: C_3  and  N_9 
ROOT
HETATM    1  C   UNL     1      63.062   9.375   4.231  1.00  0.00     0.076 A 
HETATM    2  C   UNL     1      62.678  10.624   4.734  1.00  0.00     0.056 A 
HETATM    3  N   UNL     1      61.499  11.085   2.640  1.00  0.00    -0.373 N 
ATOM      4  HN  UNL     1      60.934  11.715   2.070  1.00  0.00     0.164 HD
HETATM    5  C   UNL     1      62.618   8.987   2.953  1.00  0.00     0.035 A 
HETATM    6  C   UNL     1      61.941  11.440   3.869  1.00  0.00     0.117 A 
HETATM    7  C   UNL     1      61.845   9.861   2.209  1.00  0.00     0.088 A 
ENDROOT
BRANCH   1   8
HETATM    8  C   UNL     1      63.919   8.402   4.995  1.00  0.00     0.419 C 
HETATM    9  F   UNL     1      65.105   8.909   5.443  1.00  0.00    -0.166 F 
HETATM   10  F   UNL     1      64.238   7.297   4.264  1.00  0.00    -0.166 F 
HETATM   11  F   UNL     1      63.289   7.932   6.111  1.00  0.00    -0.166 F 
ENDBRANCH   1   8
BRANCH   2  12
HETATM   12  N   UNL     1      63.187  11.153   5.925  1.00  0.00    -0.397 N 
HETATM   13  H   UNL     1      62.677  11.835   6.418  1.00  0.00     0.156 HD
HETATM   14  H   UNL     1      64.055  10.841   6.271  1.00  0.00     0.156 HD
ENDBRANCH   2  12
TORSDOF 2
ENDMDL
MODEL 2
REMARK VINA RESULT:      -4.5      2.469      3.608
REMARK  2 active torsions:
REMARK  status: ('A' for Active; 'I' for Inactive)
REMARK    1  A    between atoms: C_1  and  C_2 
REMARK    2  A    between atoms: C_3  and  N_9 
ROOT
HETATM    1  C   UNL     1      62.353   9.324   2.909  1.00  0.00     0.076 A 
HETATM    2  C   UNL     1      62.143  10.651   3.303  1.00  0.00     0.056 A 
HETATM    3  N   UNL     1      62.974  10.101   5.539  1.00  0.00    -0.373 N 
ATOM      4  HN  UNL     1      63.194  10.394   6.491  1.00  0.00     0.164 HD
HETATM    5  C   UNL     1      62.912   8.418   3.830  1.00  0.00     0.035 A 
HETATM    6  C   UNL     1      62.431  10.954   4.639  1.00  0.00     0.117 A 
HETATM    7  C   UNL     1      63.207   8.849   5.112  1.00  0.00     0.088 A 
ENDROOT
BRANCH   1   8
HETATM    8  C   UNL     1      62.027   8.806   1.534  1.00  0.00     0.419 C 
HETATM    9  F   UNL     1      60.704   8.851   1.202  1.00  0.00    -0.166 F 
HETATM   10  F   UNL     1      62.413   7.512   1.356  1.00  0.00    -0.166 F 
HETATM   11  F   UNL     1      62.663   9.516   0.557  1.00  0.00    -0.166 F 
ENDBRANCH   1   8
BRANCH   2  12
HETATM   12  N   UNL     1      61.463  11.581   2.510  1.00  0.00    -0.397 N 
HETATM   13  H   UNL     1      60.583  11.919   2.793  1.00  0.00     0.156 HD
HETATM   14  H   UNL     1      61.864  11.898   1.669  1.00  0.00     0.156 HD
ENDBRANCH   2  12
TORSDOF 2
ENDMDL
MODEL 3
REMARK VINA RESULT:      -4.5      2.978      4.051
REMARK  2 active torsions:
REMARK  status: ('A' for Active; 'I' for Inactive)
REMARK    1  A    between atoms: C_1  and  C_2 
REMARK    2  A    between atoms: C_3  and  N_9 
ROOT
HETATM    1  C   UNL     1      62.348   9.868   3.158  1.00  0.00     0.076 A 
HETATM    2  C   UNL     1      62.970   8.703   3.623  1.00  0.00     0.056 A 
HETATM    3  N   UNL     1      63.400   9.807   5.764  1.00  0.00    -0.373 N 
ATOM      4  HN  UNL     1      63.787   9.775   6.707  1.00  0.00     0.164 HD
HETATM    5  C   UNL     1      62.226  10.970   4.025  1.00  0.00     0.035 A 
HETATM    6  C   UNL     1      63.512   8.762   4.912  1.00  0.00     0.117 A 
HETATM    7  C   UNL     1      62.754  10.891   5.302  1.00  0.00     0.088 A 
ENDROOT
BRANCH   1   8
HETATM    8  C   UNL     1      61.779  10.007   1.772  1.00  0.00     0.419 C 
HETATM    9  F   UNL     1      60.715   9.196   1.504  1.00  0.00    -0.166 F 
HETATM   10  F   UNL     1      62.699   9.750   0.799  1.00  0.00    -0.166 F 
HETATM   11  F   UNL     1      61.332  11.273   1.527  1.00  0.00    -0.166 F 
ENDBRANCH   1   8
BRANCH   2  12
HETATM   12  N   UNL     1      63.267   7.617   2.793  1.00  0.00    -0.397 N 
HETATM   13  H   UNL     1      63.114   6.698   3.111  1.00  0.00     0.156 HD
HETATM   14  H   UNL     1      63.627   7.771   1.889  1.00  0.00     0.156 HD
ENDBRANCH   2  12
TORSDOF 2
ENDMDL
MODEL 4
REMARK VINA RESULT:      -4.1      1.438      2.771
REMARK  2 active torsions:
REMARK  status: ('A' for Active; 'I' for Inactive)
REMARK    1  A    between atoms: C_1  and  C_2 
REMARK    2  A    between atoms: C_3  and  N_9 
ROOT
HETATM    1  C   UNL     1      62.670   9.128   3.759  1.00  0.00     0.076 A 
HETATM    2  C   UNL     1      62.005  10.122   3.031  1.00  0.00     0.056 A 
HETATM    3  N   UNL     1      62.409  11.704   4.855  1.00  0.00    -0.373 N 
ATOM      4  HN  UNL     1      62.307  12.641   5.243  1.00  0.00     0.164 HD
HETATM    5  C   UNL     1      63.233   9.456   5.007  1.00  0.00     0.035 A 
HETATM    6  C   UNL     1      61.872  11.366   3.659  1.00  0.00     0.117 A 
HETATM    7  C   UNL     1      63.084  10.739   5.502  1.00  0.00     0.088 A 
ENDROOT
BRANCH   1   8
HETATM    8  C   UNL     1      62.837   7.715   3.270  1.00  0.00     0.419 C 
HETATM    9  F   UNL     1      63.292   7.600   1.988  1.00  0.00    -0.166 F 
HETATM   10  F   UNL     1      61.677   7.002   3.320  1.00  0.00    -0.166 F 
HETATM   11  F   UNL     1      63.730   7.014   4.027  1.00  0.00    -0.166 F 
ENDBRANCH   1   8
BRANCH   2  12
HETATM   12  N   UNL     1      61.293   9.857   1.857  1.00  0.00    -0.397 N 
HETATM   13  H   UNL     1      61.714   9.345   1.130  1.00  0.00     0.156 HD
HETATM   14  H   UNL     1      60.368  10.181   1.758  1.00  0.00     0.156 HD
ENDBRANCH   2  12
TORSDOF 2
ENDMDL
MODEL 5
REMARK VINA RESULT:      -3.9      2.727      3.631
REMARK  2 active torsions:
REMARK  status: ('A' for Active; 'I' for Inactive)
REMARK    1  A    between atoms: C_1  and  C_2 
REMARK    2  A    between atoms: C_3  and  N_9 
ROOT
HETATM    1  C   UNL     1      63.073   8.801   3.693  1.00  0.00     0.076 A 
HETATM    2  C   UNL     1      63.782   9.148   4.850  1.00  0.00     0.056 A 
HETATM    3  N   UNL     1      65.085   7.086   4.649  1.00  0.00    -0.373 N 
ATOM      4  HN  UNL     1      65.815   6.470   5.006  1.00  0.00     0.164 HD
HETATM    5  C   UNL     1      63.415   7.618   3.011  1.00  0.00     0.035 A 
HETATM    6  C   UNL     1      64.736   8.224   5.292  1.00  0.00     0.117 A 
HETATM    7  C   UNL     1      64.418   6.809   3.516  1.00  0.00     0.088 A 
ENDROOT
BRANCH   1   8
HETATM    8  C   UNL     1      61.962   9.639   3.120  1.00  0.00     0.419 C 
HETATM    9  F   UNL     1      62.248  10.967   2.998  1.00  0.00    -0.166 F 
HETATM   10  F   UNL     1      60.818   9.569   3.857  1.00  0.00    -0.166 F 
HETATM   11  F   UNL     1      61.612   9.234   1.864  1.00  0.00    -0.166 F 
ENDBRANCH   1   8
BRANCH   2  12
HETATM   12  N   UNL     1      63.419  10.221   5.671  1.00  0.00    -0.397 N 
HETATM   13  H   UNL     1      63.730  10.254   6.603  1.00  0.00     0.156 HD
HETATM   14  H   UNL     1      62.852  10.943   5.315  1.00  0.00     0.156 HD
ENDBRANCH   2  12
TORSDOF 2
ENDMDL
MODEL 6
REMARK VINA RESULT:      -3.9      4.491      5.750
REMARK  2 active torsions:
REMARK  status: ('A' for Active; 'I' for Inactive)
REMARK    1  A    between atoms: C_1  and  C_2 
REMARK    2  A    between atoms: C_3  and  N_9 
ROOT
HETATM    1  C   UNL     1      66.211   6.724   6.106  1.00  0.00     0.076 A 
HETATM    2  C   UNL     1      66.678   7.275   7.306  1.00  0.00     0.056 A 
HETATM    3  N   UNL     1      66.062   5.214   8.473  1.00  0.00    -0.373 N 
ATOM      4  HN  UNL     1      66.011   4.676   9.338  1.00  0.00     0.164 HD
HETATM    5  C   UNL     1      65.716   5.406   6.107  1.00  0.00     0.035 A 
HETATM    6  C   UNL     1      66.529   6.484   8.451  1.00  0.00     0.117 A 
HETATM    7  C   UNL     1      65.668   4.700   7.296  1.00  0.00     0.088 A 
ENDROOT
BRANCH   1   8
HETATM    8  C   UNL     1      66.223   7.462   4.795  1.00  0.00     0.419 C 
HETATM    9  F   UNL     1      67.447   7.926   4.408  1.00  0.00    -0.166 F 
HETATM   10  F   UNL     1      65.396   8.546   4.795  1.00  0.00    -0.166 F 
HETATM   11  F   UNL     1      65.798   6.678   3.763  1.00  0.00    -0.166 F 
ENDBRANCH   1   8
BRANCH   2  12
HETATM   12  N   UNL     1      67.050   8.618   7.432  1.00  0.00    -0.397 N 
HETATM   13  H   UNL     1      67.099   9.192   6.634  1.00  0.00     0.156 HD
HETATM   14  H   UNL     1      67.262   8.989   8.319  1.00  0.00     0.156 HD
ENDBRANCH   2  12
TORSDOF 2
ENDMDL
MODEL 7
REMARK VINA RESULT:      -3.8      3.349      4.697
REMARK  2 active torsions:
REMARK  status: ('A' for Active; 'I' for Inactive)
REMARK    1  A    between atoms: C_1  and  C_2 
REMARK    2  A    between atoms: C_3  and  N_9 
ROOT
HETATM    1  C   UNL     1      65.474   7.644   4.909  1.00  0.00     0.076 A 
HETATM    2  C   UNL     1      66.611   7.746   5.720  1.00  0.00     0.056 A 
HETATM    3  N   UNL     1      67.662   5.942   4.444  1.00  0.00    -0.373 N 
ATOM      4  HN  UNL     1      68.461   5.328   4.285  1.00  0.00     0.164 HD
HETATM    5  C   UNL     1      65.471   6.717   3.849  1.00  0.00     0.035 A 
HETATM    6  C   UNL     1      67.642   6.836   5.460  1.00  0.00     0.117 A 
HETATM    7  C   UNL     1      66.575   5.905   3.655  1.00  0.00     0.088 A 
ENDROOT
BRANCH   1   8
HETATM    8  C   UNL     1      64.244   8.491   5.097  1.00  0.00     0.419 C 
HETATM    9  F   UNL     1      64.487   9.794   5.420  1.00  0.00    -0.166 F 
HETATM   10  F   UNL     1      63.421   8.012   6.072  1.00  0.00    -0.166 F 
HETATM   11  F   UNL     1      63.480   8.541   3.966  1.00  0.00    -0.166 F 
ENDBRANCH   1   8
BRANCH   2  12
HETATM   12  N   UNL     1      66.650   8.529   6.878  1.00  0.00    -0.397 N 
HETATM   13  H   UNL     1      66.091   8.292   7.652  1.00  0.00     0.156 HD
HETATM   14  H   UNL     1      67.240   9.317   6.920  1.00  0.00     0.156 HD
ENDBRANCH   2  12
TORSDOF 2
ENDMDL
MODEL 8
REMARK VINA RESULT:      -3.7     12.221     13.105
REMARK  2 active torsions:
REMARK  status: ('A' for Active; 'I' for Inactive)
REMARK    1  A    between atoms: C_1  and  C_2 
REMARK    2  A    between atoms: C_3  and  N_9 
ROOT
HETATM    1  C   UNL     1      57.757   1.718  12.993  1.00  0.00     0.076 A 
HETATM    2  C   UNL     1      56.400   1.461  13.224  1.00  0.00     0.056 A 
HETATM    3  N   UNL     1      55.862   2.455  11.052  1.00  0.00    -0.373 N 
ATOM      4  HN  UNL     1      55.165   2.720  10.356  1.00  0.00     0.164 HD
HETATM    5  C   UNL     1      58.145   2.301  11.772  1.00  0.00     0.035 A 
HETATM    6  C   UNL     1      55.510   1.898  12.235  1.00  0.00     0.117 A 
HETATM    7  C   UNL     1      57.176   2.641  10.845  1.00  0.00     0.088 A 
ENDROOT
BRANCH   1   8
HETATM    8  C   UNL     1      58.842   1.385  13.982  1.00  0.00     0.419 C 
HETATM    9  F   UNL     1      58.893   0.075  14.360  1.00  0.00    -0.166 F 
HETATM   10  F   UNL     1      58.739   2.103  15.135  1.00  0.00    -0.166 F 
HETATM   11  F   UNL     1      60.085   1.661  13.489  1.00  0.00    -0.166 F 
ENDBRANCH   1   8
BRANCH   2  12
HETATM   12  N   UNL     1      55.907   1.022  14.457  1.00  0.00    -0.397 N 
HETATM   13  H   UNL     1      54.947   0.839  14.567  1.00  0.00     0.156 HD
HETATM   14  H   UNL     1      56.523   0.895  15.216  1.00  0.00     0.156 HD
ENDBRANCH   2  12
TORSDOF 2
ENDMDL
MODEL 9
REMARK VINA RESULT:      -3.5      1.826      2.631
REMARK  2 active torsions:
REMARK  status: ('A' for Active; 'I' for Inactive)
REMARK    1  A    between atoms: C_1  and  C_2 
REMARK    2  A    between atoms: C_3  and  N_9 
ROOT
HETATM    1  C   UNL     1      63.408   8.409   4.253  1.00  0.00     0.076 A 
HETATM    2  C   UNL     1      62.444   7.758   3.474  1.00  0.00     0.056 A 
HETATM    3  N   UNL     1      61.120   9.816   3.424  1.00  0.00    -0.373 N 
ATOM      4  HN  UNL     1      60.285  10.316   3.119  1.00  0.00     0.164 HD
HETATM    5  C   UNL     1      63.229   9.770   4.567  1.00  0.00     0.035 A 
HETATM    6  C   UNL     1      61.310   8.507   3.138  1.00  0.00     0.117 A 
HETATM    7  C   UNL     1      62.089  10.422   4.130  1.00  0.00     0.088 A 
ENDROOT
BRANCH   1   8
HETATM    8  C   UNL     1      64.651   7.734   4.767  1.00  0.00     0.419 C 
HETATM    9  F   UNL     1      65.413   7.128   3.811  1.00  0.00    -0.166 F 
HETATM   10  F   UNL     1      64.381   6.773   5.695  1.00  0.00    -0.166 F 
HETATM   11  F   UNL     1      65.491   8.614   5.387  1.00  0.00    -0.166 F 
ENDBRANCH   1   8
BRANCH   2  12
HETATM   12  N   UNL     1      62.462   6.380   3.237  1.00  0.00    -0.397 N 
HETATM   13  H   UNL     1      62.610   6.039   2.325  1.00  0.00     0.156 HD
HETATM   14  H   UNL     1      62.329   5.750   3.982  1.00  0.00     0.156 HD
ENDBRANCH   2  12
TORSDOF 2
ENDMDL
