MODEL 1
REMARK VINA RESULT:      -5.5      0.000      0.000
REMARK  1 active torsions:
REMARK  status: ('A' for Active; 'I' for Inactive)
REMARK    1  A    between atoms: C_6  and  O_8 
ROOT
HETATM    1  N   UNL     1      62.449  11.721   5.121  1.00  0.00    -0.238 N 
ATOM      2  HN  UNL     1      62.155  12.651   5.420  1.00  0.00     0.197 HD
HETATM    3  C   UNL     1      63.610   9.751   4.960  1.00  0.00     0.053 A 
HETATM    4  O   UNL     1      61.877  10.915   4.132  1.00  0.00    -0.234 OA
HETATM    5  C   UNL     1      62.574   9.740   4.041  1.00  0.00     0.119 A 
HETATM    6  C   UNL     1      63.463  10.996   5.582  1.00  0.00     0.173 A 
HETATM    7  C   UNL     1      62.305   8.681   3.166  1.00  0.00    -0.025 A 
HETATM    8  C   UNL     1      64.467   8.644   5.050  1.00  0.00     0.019 A 
HETATM    9  C   UNL     1      64.235   7.562   4.193  1.00  0.00     0.002 A 
HETATM   10  C   UNL     1      63.178   7.582   3.274  1.00  0.00     0.010 A 
HETATM   11  C   UNL     1      61.179   8.688   2.181  1.00  0.00     0.051 C 
ENDROOT
BRANCH   6  12
HETATM   12  O   UNL     1      64.194  11.542   6.556  1.00  0.00    -0.344 OA
HETATM   13  H   UNL     1      64.727  10.999   7.102  1.00  0.00     0.219 HD
ENDBRANCH   6  12
TORSDOF 1
ENDMDL
MODEL 2
REMARK VINA RESULT:      -5.4      1.102      2.946
REMARK  1 active torsions:
REMARK  status: ('A' for Active; 'I' for Inactive)
REMARK    1  A    between atoms: C_6  and  O_8 
ROOT
HETATM    1  N   UNL     1      63.004  11.107   5.440  1.00  0.00    -0.238 N 
ATOM      2  HN  UNL     1      62.715  12.000   5.840  1.00  0.00     0.197 HD
HETATM    3  C   UNL     1      63.070   9.227   4.129  1.00  0.00     0.053 A 
HETATM    4  O   UNL     1      64.093  10.311   5.810  1.00  0.00    -0.234 OA
HETATM    5  C   UNL     1      64.128   9.191   5.024  1.00  0.00     0.119 A 
HETATM    6  C   UNL     1      62.433  10.432   4.448  1.00  0.00     0.173 A 
HETATM    7  C   UNL     1      65.069   8.158   5.093  1.00  0.00    -0.025 A 
HETATM    8  C   UNL     1      62.901   8.176   3.217  1.00  0.00     0.019 A 
HETATM    9  C   UNL     1      63.819   7.121   3.251  1.00  0.00     0.002 A 
HETATM   10  C   UNL     1      64.878   7.114   4.168  1.00  0.00     0.010 A 
HETATM   11  C   UNL     1      66.205   8.138   6.066  1.00  0.00     0.051 C 
ENDROOT
BRANCH   6  12
HETATM   12  O   UNL     1      61.347  10.980   3.899  1.00  0.00    -0.344 OA
HETATM   13  H   UNL     1      60.698  11.379   4.443  1.00  0.00     0.219 HD
ENDBRANCH   6  12
TORSDOF 1
ENDMDL
MODEL 3
REMARK VINA RESULT:      -5.4      1.843      2.463
REMARK  1 active torsions:
REMARK  status: ('A' for Active; 'I' for Inactive)
REMARK    1  A    between atoms: C_6  and  O_8 
ROOT
HETATM    1  N   UNL     1      62.947  10.167   5.797  1.00  0.00    -0.238 N 
ATOM      2  HN  UNL     1      63.124  10.480   6.752  1.00  0.00     0.197 HD
HETATM    3  C   UNL     1      62.758   8.830   3.943  1.00  0.00     0.053 A 
HETATM    4  O   UNL     1      62.513  10.928   4.708  1.00  0.00    -0.234 OA
HETATM    5  C   UNL     1      62.401  10.126   3.604  1.00  0.00     0.119 A 
HETATM    6  C   UNL     1      63.076   8.940   5.302  1.00  0.00     0.173 A 
HETATM    7  C   UNL     1      61.995  10.524   2.326  1.00  0.00    -0.025 A 
HETATM    8  C   UNL     1      62.721   7.825   2.966  1.00  0.00     0.019 A 
HETATM    9  C   UNL     1      62.322   8.179   1.673  1.00  0.00     0.002 A 
HETATM   10  C   UNL     1      61.967   9.498   1.362  1.00  0.00     0.010 A 
HETATM   11  C   UNL     1      61.612  11.928   1.980  1.00  0.00     0.051 C 
ENDROOT
BRANCH   6  12
HETATM   12  O   UNL     1      63.487   7.993   6.149  1.00  0.00    -0.344 OA
HETATM   13  H   UNL     1      63.269   7.096   5.990  1.00  0.00     0.219 HD
ENDBRANCH   6  12
TORSDOF 1
ENDMDL
MODEL 4
REMARK VINA RESULT:      -5.3      1.369      2.550
REMARK  1 active torsions:
REMARK  status: ('A' for Active; 'I' for Inactive)
REMARK    1  A    between atoms: C_6  and  O_8 
ROOT
HETATM    1  N   UNL     1      63.085  10.710   5.761  1.00  0.00    -0.238 N 
ATOM      2  HN  UNL     1      63.236  11.236   6.622  1.00  0.00     0.197 HD
HETATM    3  C   UNL     1      62.406  10.144   3.645  1.00  0.00     0.053 A 
HETATM    4  O   UNL     1      63.501   9.409   5.463  1.00  0.00    -0.234 OA
HETATM    5  C   UNL     1      63.094   9.076   4.198  1.00  0.00     0.119 A 
HETATM    6  C   UNL     1      62.446  11.104   4.663  1.00  0.00     0.173 A 
HETATM    7  C   UNL     1      63.321   7.860   3.546  1.00  0.00    -0.025 A 
HETATM    8  C   UNL     1      61.889  10.035   2.346  1.00  0.00     0.019 A 
HETATM    9  C   UNL     1      62.092   8.835   1.656  1.00  0.00     0.002 A 
HETATM   10  C   UNL     1      62.792   7.774   2.244  1.00  0.00     0.010 A 
HETATM   11  C   UNL     1      64.068   6.719   4.161  1.00  0.00     0.051 C 
ENDROOT
BRANCH   6  12
HETATM   12  O   UNL     1      61.937  12.337   4.678  1.00  0.00    -0.344 OA
HETATM   13  H   UNL     1      61.328  12.601   4.017  1.00  0.00     0.219 HD
ENDBRANCH   6  12
TORSDOF 1
ENDMDL
MODEL 5
REMARK VINA RESULT:      -5.2      1.738      2.625
REMARK  1 active torsions:
REMARK  status: ('A' for Active; 'I' for Inactive)
REMARK    1  A    between atoms: C_6  and  O_8 
ROOT
HETATM    1  N   UNL     1      63.518   9.281   5.730  1.00  0.00    -0.238 N 
ATOM      2  HN  UNL     1      63.904   9.036   6.642  1.00  0.00     0.197 HD
HETATM    3  C   UNL     1      62.597  10.480   4.006  1.00  0.00     0.053 A 
HETATM    4  O   UNL     1      63.333   8.449   4.621  1.00  0.00    -0.234 OA
HETATM    5  C   UNL     1      62.784   9.169   3.595  1.00  0.00     0.119 A 
HETATM    6  C   UNL     1      63.073  10.465   5.322  1.00  0.00     0.173 A 
HETATM    7  C   UNL     1      62.454   8.685   2.325  1.00  0.00    -0.025 A 
HETATM    8  C   UNL     1      62.043  11.411   3.116  1.00  0.00     0.019 A 
HETATM    9  C   UNL     1      61.696  10.969   1.834  1.00  0.00     0.002 A 
HETATM   10  C   UNL     1      61.898   9.638   1.450  1.00  0.00     0.010 A 
HETATM   11  C   UNL     1      62.665   7.266   1.900  1.00  0.00     0.051 C 
ENDROOT
BRANCH   6  12
HETATM   12  O   UNL     1      63.135  11.464   6.206  1.00  0.00    -0.344 OA
HETATM   13  H   UNL     1      62.401  12.034   6.320  1.00  0.00     0.219 HD
ENDBRANCH   6  12
TORSDOF 1
ENDMDL
MODEL 6
REMARK VINA RESULT:      -4.9      2.453      3.100
REMARK  1 active torsions:
REMARK  status: ('A' for Active; 'I' for Inactive)
REMARK    1  A    between atoms: C_6  and  O_8 
ROOT
HETATM    1  N   UNL     1      64.051   7.033   4.236  1.00  0.00    -0.238 N 
ATOM      2  HN  UNL     1      64.499   6.125   4.357  1.00  0.00     0.197 HD
HETATM    3  C   UNL     1      63.253   9.142   4.656  1.00  0.00     0.053 A 
HETATM    4  O   UNL     1      63.428   7.540   3.091  1.00  0.00    -0.234 OA
HETATM    5  C   UNL     1      62.954   8.798   3.347  1.00  0.00     0.119 A 
HETATM    6  C   UNL     1      63.926   8.009   5.129  1.00  0.00     0.173 A 
HETATM    7  C   UNL     1      62.272   9.627   2.449  1.00  0.00    -0.025 A 
HETATM    8  C   UNL     1      62.862  10.395   5.148  1.00  0.00     0.019 A 
HETATM    9  C   UNL     1      62.176  11.256   4.284  1.00  0.00     0.002 A 
HETATM   10  C   UNL     1      61.889  10.879   2.966  1.00  0.00     0.010 A 
HETATM   11  C   UNL     1      61.960   9.238   1.038  1.00  0.00     0.051 C 
ENDROOT
BRANCH   6  12
HETATM   12  O   UNL     1      64.446   7.784   6.338  1.00  0.00    -0.344 OA
HETATM   13  H   UNL     1      64.957   8.447   6.759  1.00  0.00     0.219 HD
ENDBRANCH   6  12
TORSDOF 1
ENDMDL
MODEL 7
REMARK VINA RESULT:      -4.7      3.042      3.982
REMARK  1 active torsions:
REMARK  status: ('A' for Active; 'I' for Inactive)
REMARK    1  A    between atoms: C_6  and  O_8 
ROOT
HETATM    1  N   UNL     1      66.988   8.382   6.675  1.00  0.00    -0.238 N 
ATOM      2  HN  UNL     1      67.666   8.623   7.398  1.00  0.00     0.197 HD
HETATM    3  C   UNL     1      65.938   7.299   4.948  1.00  0.00     0.053 A 
HETATM    4  O   UNL     1      65.807   9.053   6.344  1.00  0.00    -0.234 OA
HETATM    5  C   UNL     1      65.184   8.403   5.313  1.00  0.00     0.119 A 
HETATM    6  C   UNL     1      67.023   7.357   5.830  1.00  0.00     0.173 A 
HETATM    7  C   UNL     1      63.979   8.772   4.706  1.00  0.00    -0.025 A 
HETATM    8  C   UNL     1      65.495   6.474   3.904  1.00  0.00     0.019 A 
HETATM    9  C   UNL     1      64.294   6.807   3.267  1.00  0.00     0.002 A 
HETATM   10  C   UNL     1      63.555   7.929   3.661  1.00  0.00     0.010 A 
HETATM   11  C   UNL     1      63.178   9.967   5.116  1.00  0.00     0.051 C 
ENDROOT
BRANCH   6  12
HETATM   12  O   UNL     1      68.070   6.534   5.931  1.00  0.00    -0.344 OA
HETATM   13  H   UNL     1      67.940   5.638   6.168  1.00  0.00     0.219 HD
ENDBRANCH   6  12
TORSDOF 1
ENDMDL
MODEL 8
REMARK VINA RESULT:      -4.5      3.435      4.944
REMARK  1 active torsions:
REMARK  status: ('A' for Active; 'I' for Inactive)
REMARK    1  A    between atoms: C_6  and  O_8 
ROOT
HETATM    1  N   UNL     1      63.408   7.942   6.238  1.00  0.00    -0.238 N 
ATOM      2  HN  UNL     1      62.425   8.206   6.302  1.00  0.00     0.197 HD
HETATM    3  C   UNL     1      65.551   7.697   5.460  1.00  0.00     0.053 A 
HETATM    4  O   UNL     1      64.170   7.230   7.169  1.00  0.00    -0.234 OA
HETATM    5  C   UNL     1      65.448   7.087   6.700  1.00  0.00     0.119 A 
HETATM    6  C   UNL     1      64.261   8.198   5.251  1.00  0.00     0.173 A 
HETATM    7  C   UNL     1      66.502   6.432   7.347  1.00  0.00    -0.025 A 
HETATM    8  C   UNL     1      66.777   7.679   4.780  1.00  0.00     0.019 A 
HETATM    9  C   UNL     1      67.858   7.034   5.390  1.00  0.00     0.002 A 
HETATM   10  C   UNL     1      67.722   6.426   6.645  1.00  0.00     0.010 A 
HETATM   11  C   UNL     1      66.371   5.780   8.688  1.00  0.00     0.051 C 
ENDROOT
BRANCH   6  12
HETATM   12  O   UNL     1      63.782   8.883   4.210  1.00  0.00    -0.344 OA
HETATM   13  H   UNL     1      63.238   9.632   4.353  1.00  0.00     0.219 HD
ENDBRANCH   6  12
TORSDOF 1
ENDMDL
MODEL 9
REMARK VINA RESULT:      -4.4      2.789      4.420
REMARK  1 active torsions:
REMARK  status: ('A' for Active; 'I' for Inactive)
REMARK    1  A    between atoms: C_6  and  O_8 
ROOT
HETATM    1  N   UNL     1      63.513   6.808   3.163  1.00  0.00    -0.238 N 
ATOM      2  HN  UNL     1      63.895   5.875   3.320  1.00  0.00     0.197 HD
HETATM    3  C   UNL     1      62.550   8.623   2.146  1.00  0.00     0.053 A 
HETATM    4  O   UNL     1      63.418   7.864   4.074  1.00  0.00    -0.234 OA
HETATM    5  C   UNL     1      62.842   8.945   3.462  1.00  0.00     0.119 A 
HETATM    6  C   UNL     1      62.989   7.298   2.044  1.00  0.00     0.173 A 
HETATM    7  C   UNL     1      62.580  10.189   4.047  1.00  0.00    -0.025 A 
HETATM    8  C   UNL     1      61.950   9.582   1.317  1.00  0.00     0.019 A 
HETATM    9  C   UNL     1      61.672  10.840   1.861  1.00  0.00     0.002 A 
HETATM   10  C   UNL     1      61.980  11.134   3.195  1.00  0.00     0.010 A 
HETATM   11  C   UNL     1      62.902  10.516   5.471  1.00  0.00     0.051 C 
ENDROOT
BRANCH   6  12
HETATM   12  O   UNL     1      62.954   6.479   0.991  1.00  0.00    -0.344 OA
HETATM   13  H   UNL     1      63.611   5.820   0.888  1.00  0.00     0.219 HD
ENDBRANCH   6  12
TORSDOF 1
ENDMDL
