MODEL 1
REMARK VINA RESULT:      -4.9      0.000      0.000
REMARK  2 active torsions:
REMARK  status: ('A' for Active; 'I' for Inactive)
REMARK    1  A    between atoms: C_1  and  C_2 
REMARK    2  A    between atoms: C_5  and  N_12 
ROOT
HETATM    1  C   UNL     1      62.351   9.544   2.918  1.00  0.00     0.063 A 
HETATM    2  N   UNL     1      62.278  11.443   4.419  1.00  0.00    -0.352 N 
ATOM      3  HN  UNL     1      61.973  12.396   4.616  1.00  0.00     0.166 HD
HETATM    4  C   UNL     1      63.001  10.746   5.309  1.00  0.00     0.098 A 
HETATM    5  C   UNL     1      61.968  10.835   3.249  1.00  0.00     0.106 A 
HETATM    6  C   UNL     1      63.105   8.841   3.860  1.00  0.00     0.021 A 
HETATM    7  C   UNL     1      63.429   9.447   5.073  1.00  0.00     0.049 A 
ENDROOT
BRANCH   1   8
HETATM    8  C   UNL     1      61.957   8.933   1.610  1.00  0.00     0.418 C 
HETATM    9  F   UNL     1      60.624   9.013   1.347  1.00  0.00    -0.166 F 
HETATM   10  F   UNL     1      62.271   7.609   1.538  1.00  0.00    -0.166 F 
HETATM   11  F   UNL     1      62.580   9.521   0.552  1.00  0.00    -0.166 F 
ENDBRANCH   1   8
BRANCH   4  12
HETATM   12  N   UNL     1      63.269  11.370   6.522  1.00  0.00    -0.385 N 
HETATM   13  H   UNL     1      64.200  11.535   6.795  1.00  0.00     0.157 HD
HETATM   14  H   UNL     1      62.528  11.645   7.108  1.00  0.00     0.157 HD
ENDBRANCH   4  12
TORSDOF 2
ENDMDL
MODEL 2
REMARK VINA RESULT:      -4.9      0.800      1.861
REMARK  2 active torsions:
REMARK  status: ('A' for Active; 'I' for Inactive)
REMARK    1  A    between atoms: C_1  and  C_2 
REMARK    2  A    between atoms: C_5  and  N_12 
ROOT
HETATM    1  C   UNL     1      62.234   9.529   2.715  1.00  0.00     0.063 A 
HETATM    2  N   UNL     1      63.332   9.472   4.873  1.00  0.00    -0.352 N 
ATOM      3  HN  UNL     1      63.896   8.971   5.559  1.00  0.00     0.166 HD
HETATM    4  C   UNL     1      62.896  10.720   5.109  1.00  0.00     0.098 A 
HETATM    5  C   UNL     1      62.997   8.904   3.691  1.00  0.00     0.106 A 
HETATM    6  C   UNL     1      61.791  10.825   2.987  1.00  0.00     0.021 A 
HETATM    7  C   UNL     1      62.131  11.431   4.196  1.00  0.00     0.049 A 
ENDROOT
BRANCH   1   8
HETATM    8  C   UNL     1      61.916   8.841   1.426  1.00  0.00     0.418 C 
HETATM    9  F   UNL     1      62.614   9.323   0.361  1.00  0.00    -0.166 F 
HETATM   10  F   UNL     1      60.600   8.952   1.087  1.00  0.00    -0.166 F 
HETATM   11  F   UNL     1      62.177   7.506   1.469  1.00  0.00    -0.166 F 
ENDBRANCH   1   8
BRANCH   4  12
HETATM   12  N   UNL     1      63.291  11.303   6.307  1.00  0.00    -0.385 N 
HETATM   13  H   UNL     1      63.698  10.749   7.013  1.00  0.00     0.157 HD
HETATM   14  H   UNL     1      63.163  12.268   6.452  1.00  0.00     0.157 HD
ENDBRANCH   4  12
TORSDOF 2
ENDMDL
MODEL 3
REMARK VINA RESULT:      -4.4      1.703      2.066
REMARK  2 active torsions:
REMARK  status: ('A' for Active; 'I' for Inactive)
REMARK    1  A    between atoms: C_1  and  C_2 
REMARK    2  A    between atoms: C_5  and  N_12 
ROOT
HETATM    1  C   UNL     1      62.485   9.209   2.953  1.00  0.00     0.063 A 
HETATM    2  N   UNL     1      62.928   9.436   5.323  1.00  0.00    -0.352 N 
ATOM      3  HN  UNL     1      62.890   9.997   6.174  1.00  0.00     0.166 HD
HETATM    4  C   UNL     1      63.442   8.196   5.329  1.00  0.00     0.098 A 
HETATM    5  C   UNL     1      62.462   9.917   4.145  1.00  0.00     0.106 A 
HETATM    6  C   UNL     1      63.027   7.922   2.986  1.00  0.00     0.021 A 
HETATM    7  C   UNL     1      63.507   7.407   4.189  1.00  0.00     0.049 A 
ENDROOT
BRANCH   1   8
HETATM    8  C   UNL     1      61.937   9.801   1.693  1.00  0.00     0.418 C 
HETATM    9  F   UNL     1      61.848  11.160   1.719  1.00  0.00    -0.166 F 
HETATM   10  F   UNL     1      60.682   9.353   1.409  1.00  0.00    -0.166 F 
HETATM   11  F   UNL     1      62.695   9.499   0.604  1.00  0.00    -0.166 F 
ENDBRANCH   1   8
BRANCH   4  12
HETATM   12  N   UNL     1      63.872   7.704   6.556  1.00  0.00    -0.385 N 
HETATM   13  H   UNL     1      64.835   7.643   6.751  1.00  0.00     0.157 HD
HETATM   14  H   UNL     1      63.214   7.416   7.229  1.00  0.00     0.157 HD
ENDBRANCH   4  12
TORSDOF 2
ENDMDL
MODEL 4
REMARK VINA RESULT:      -4.3      1.555      2.626
REMARK  2 active torsions:
REMARK  status: ('A' for Active; 'I' for Inactive)
REMARK    1  A    between atoms: C_1  and  C_2 
REMARK    2  A    between atoms: C_5  and  N_12 
ROOT
HETATM    1  C   UNL     1      63.251   8.279   3.650  1.00  0.00     0.063 A 
HETATM    2  N   UNL     1      64.228   9.429   5.544  1.00  0.00    -0.352 N 
ATOM      3  HN  UNL     1      64.942   9.478   6.270  1.00  0.00     0.166 HD
HETATM    4  C   UNL     1      63.286  10.379   5.432  1.00  0.00     0.098 A 
HETATM    5  C   UNL     1      64.194   8.405   4.659  1.00  0.00     0.106 A 
HETATM    6  C   UNL     1      62.281   9.279   3.556  1.00  0.00     0.021 A 
HETATM    7  C   UNL     1      62.301  10.345   4.455  1.00  0.00     0.049 A 
ENDROOT
BRANCH   1   8
HETATM    8  C   UNL     1      63.287   7.125   2.700  1.00  0.00     0.418 C 
HETATM    9  F   UNL     1      64.501   6.511   2.627  1.00  0.00    -0.166 F 
HETATM   10  F   UNL     1      62.981   7.491   1.423  1.00  0.00    -0.166 F 
HETATM   11  F   UNL     1      62.397   6.149   3.030  1.00  0.00    -0.166 F 
ENDBRANCH   1   8
BRANCH   4  12
HETATM   12  N   UNL     1      63.365  11.446   6.319  1.00  0.00    -0.385 N 
HETATM   13  H   UNL     1      62.612  12.075   6.401  1.00  0.00     0.157 HD
HETATM   14  H   UNL     1      64.174  11.574   6.865  1.00  0.00     0.157 HD
ENDBRANCH   4  12
TORSDOF 2
ENDMDL
MODEL 5
REMARK VINA RESULT:      -4.2      2.668      3.762
REMARK  2 active torsions:
REMARK  status: ('A' for Active; 'I' for Inactive)
REMARK    1  A    between atoms: C_1  and  C_2 
REMARK    2  A    between atoms: C_5  and  N_12 
ROOT
HETATM    1  C   UNL     1      62.959   8.739   4.375  1.00  0.00     0.063 A 
HETATM    2  N   UNL     1      62.218  11.023   4.058  1.00  0.00    -0.352 N 
ATOM      3  HN  UNL     1      62.056  11.955   4.438  1.00  0.00     0.166 HD
HETATM    4  C   UNL     1      61.946  10.738   2.774  1.00  0.00     0.098 A 
HETATM    5  C   UNL     1      62.715  10.027   4.829  1.00  0.00     0.106 A 
HETATM    6  C   UNL     1      62.664   8.469   3.037  1.00  0.00     0.021 A 
HETATM    7  C   UNL     1      62.157   9.482   2.225  1.00  0.00     0.049 A 
ENDROOT
BRANCH   1   8
HETATM    8  C   UNL     1      63.524   7.694   5.284  1.00  0.00     0.418 C 
HETATM    9  F   UNL     1      64.850   7.858   5.550  1.00  0.00    -0.166 F 
HETATM   10  F   UNL     1      63.401   6.437   4.773  1.00  0.00    -0.166 F 
HETATM   11  F   UNL     1      62.903   7.666   6.495  1.00  0.00    -0.166 F 
ENDBRANCH   1   8
BRANCH   4  12
HETATM   12  N   UNL     1      61.480  11.786   1.988  1.00  0.00    -0.385 N 
HETATM   13  H   UNL     1      60.549  12.092   2.078  1.00  0.00     0.157 HD
HETATM   14  H   UNL     1      62.081  12.220   1.340  1.00  0.00     0.157 HD
ENDBRANCH   4  12
TORSDOF 2
ENDMDL
MODEL 6
REMARK VINA RESULT:      -4.2      2.949      3.952
REMARK  2 active torsions:
REMARK  status: ('A' for Active; 'I' for Inactive)
REMARK    1  A    between atoms: C_1  and  C_2 
REMARK    2  A    between atoms: C_5  and  N_12 
ROOT
HETATM    1  C   UNL     1      63.433   8.596   4.688  1.00  0.00     0.063 A 
HETATM    2  N   UNL     1      62.305  10.714   4.362  1.00  0.00    -0.352 N 
ATOM      3  HN  UNL     1      62.010  11.618   4.731  1.00  0.00     0.166 HD
HETATM    4  C   UNL     1      62.017  10.348   3.104  1.00  0.00     0.098 A 
HETATM    5  C   UNL     1      63.002   9.839   5.126  1.00  0.00     0.106 A 
HETATM    6  C   UNL     1      63.118   8.238   3.375  1.00  0.00     0.021 A 
HETATM    7  C   UNL     1      62.406   9.127   2.571  1.00  0.00     0.049 A 
ENDROOT
BRANCH   1   8
HETATM    8  C   UNL     1      64.213   7.689   5.586  1.00  0.00     0.418 C 
HETATM    9  F   UNL     1      63.530   7.299   6.698  1.00  0.00    -0.166 F 
HETATM   10  F   UNL     1      65.361   8.265   6.040  1.00  0.00    -0.166 F 
HETATM   11  F   UNL     1      64.594   6.541   4.963  1.00  0.00    -0.166 F 
ENDBRANCH   1   8
BRANCH   4  12
HETATM   12  N   UNL     1      61.342  11.278   2.322  1.00  0.00    -0.385 N 
HETATM   13  H   UNL     1      60.415  11.103   2.039  1.00  0.00     0.157 HD
HETATM   14  H   UNL     1      61.791  12.111   2.049  1.00  0.00     0.157 HD
ENDBRANCH   4  12
TORSDOF 2
ENDMDL
MODEL 7
REMARK VINA RESULT:      -4.0      3.278      4.433
REMARK  2 active torsions:
REMARK  status: ('A' for Active; 'I' for Inactive)
REMARK    1  A    between atoms: C_1  and  C_2 
REMARK    2  A    between atoms: C_5  and  N_12 
ROOT
HETATM    1  C   UNL     1      62.096   8.969   3.394  1.00  0.00     0.063 A 
HETATM    2  N   UNL     1      60.033   8.022   2.552  1.00  0.00    -0.352 N 
ATOM      3  HN  UNL     1      59.139   7.564   2.730  1.00  0.00     0.166 HD
HETATM    4  C   UNL     1      60.423   8.325   1.304  1.00  0.00     0.098 A 
HETATM    5  C   UNL     1      60.869   8.347   3.567  1.00  0.00     0.106 A 
HETATM    6  C   UNL     1      62.480   9.271   2.086  1.00  0.00     0.021 A 
HETATM    7  C   UNL     1      61.630   8.950   1.028  1.00  0.00     0.049 A 
ENDROOT
BRANCH   1   8
HETATM    8  C   UNL     1      62.960   9.311   4.567  1.00  0.00     0.418 C 
HETATM    9  F   UNL     1      62.951  10.634   4.888  1.00  0.00    -0.166 F 
HETATM   10  F   UNL     1      64.268   8.988   4.362  1.00  0.00    -0.166 F 
HETATM   11  F   UNL     1      62.587   8.651   5.698  1.00  0.00    -0.166 F 
ENDBRANCH   1   8
BRANCH   4  12
HETATM   12  N   UNL     1      59.530   8.026   0.281  1.00  0.00    -0.385 N 
HETATM   13  H   UNL     1      59.601   7.169  -0.199  1.00  0.00     0.157 HD
HETATM   14  H   UNL     1      58.829   8.671   0.035  1.00  0.00     0.157 HD
ENDBRANCH   4  12
TORSDOF 2
ENDMDL
MODEL 8
REMARK VINA RESULT:      -4.0      4.312      5.224
REMARK  2 active torsions:
REMARK  status: ('A' for Active; 'I' for Inactive)
REMARK    1  A    between atoms: C_1  and  C_2 
REMARK    2  A    between atoms: C_5  and  N_12 
ROOT
HETATM    1  C   UNL     1      65.108   7.646   5.983  1.00  0.00     0.063 A 
HETATM    2  N   UNL     1      67.273   7.870   7.044  1.00  0.00    -0.352 N 
ATOM      3  HN  UNL     1      68.168   8.352   7.121  1.00  0.00     0.166 HD
HETATM    4  C   UNL     1      66.974   6.829   7.837  1.00  0.00     0.098 A 
HETATM    5  C   UNL     1      66.343   8.257   6.139  1.00  0.00     0.106 A 
HETATM    6  C   UNL     1      64.822   6.564   6.818  1.00  0.00     0.021 A 
HETATM    7  C   UNL     1      65.764   6.153   7.760  1.00  0.00     0.049 A 
ENDROOT
BRANCH   1   8
HETATM    8  C   UNL     1      64.125   8.140   4.969  1.00  0.00     0.418 C 
HETATM    9  F   UNL     1      64.102   9.496   4.842  1.00  0.00    -0.166 F 
HETATM   10  F   UNL     1      62.845   7.774   5.263  1.00  0.00    -0.166 F 
HETATM   11  F   UNL     1      64.374   7.654   3.722  1.00  0.00    -0.166 F 
ENDBRANCH   1   8
BRANCH   4  12
HETATM   12  N   UNL     1      67.922   6.477   8.790  1.00  0.00    -0.385 N 
HETATM   13  H   UNL     1      67.978   6.979   9.636  1.00  0.00     0.157 HD
HETATM   14  H   UNL     1      68.538   5.728   8.620  1.00  0.00     0.157 HD
ENDBRANCH   4  12
TORSDOF 2
ENDMDL
MODEL 9
REMARK VINA RESULT:      -4.0      2.919      3.462
REMARK  2 active torsions:
REMARK  status: ('A' for Active; 'I' for Inactive)
REMARK    1  A    between atoms: C_1  and  C_2 
REMARK    2  A    between atoms: C_5  and  N_12 
ROOT
HETATM    1  C   UNL     1      62.975   8.690   4.822  1.00  0.00     0.063 A 
HETATM    2  N   UNL     1      65.088   8.217   5.906  1.00  0.00    -0.352 N 
ATOM      3  HN  UNL     1      66.060   8.469   6.084  1.00  0.00     0.166 HD
HETATM    4  C   UNL     1      64.541   7.122   6.457  1.00  0.00     0.098 A 
HETATM    5  C   UNL     1      64.302   8.975   5.105  1.00  0.00     0.106 A 
HETATM    6  C   UNL     1      62.431   7.544   5.406  1.00  0.00     0.021 A 
HETATM    7  C   UNL     1      63.222   6.753   6.238  1.00  0.00     0.049 A 
ENDROOT
BRANCH   1   8
HETATM    8  C   UNL     1      62.165   9.584   3.939  1.00  0.00     0.418 C 
HETATM    9  F   UNL     1      60.865   9.197   3.810  1.00  0.00    -0.166 F 
HETATM   10  F   UNL     1      62.659   9.651   2.671  1.00  0.00    -0.166 F 
HETATM   11  F   UNL     1      62.127  10.868   4.391  1.00  0.00    -0.166 F 
ENDBRANCH   1   8
BRANCH   4  12
HETATM   12  N   UNL     1      65.350   6.383   7.313  1.00  0.00    -0.385 N 
HETATM   13  H   UNL     1      66.011   5.753   6.943  1.00  0.00     0.157 HD
HETATM   14  H   UNL     1      65.261   6.487   8.288  1.00  0.00     0.157 HD
ENDBRANCH   4  12
TORSDOF 2
ENDMDL
