MODEL 1
REMARK VINA RESULT:      -5.0      0.000      0.000
REMARK  1 active torsions:
REMARK  status: ('A' for Active; 'I' for Inactive)
REMARK    1  A    between atoms: C_1  and  C_2 
ROOT
HETATM    1  C   UNL     1      62.896   9.150   3.679  1.00  0.00     0.071 A 
HETATM    2  N   UNL     1      63.242  11.353   6.477  1.00  0.00    -0.191 NA
HETATM    3  C   UNL     1      62.947  10.924   5.440  1.00  0.00     0.101 C 
HETATM    4  C   UNL     1      62.566  10.427   4.154  1.00  0.00     0.075 A 
HETATM    5  N   UNL     1      61.404  10.922   2.083  1.00  0.00    -0.374 N 
ATOM      6  HN  UNL     1      60.861  11.567   1.510  1.00  0.00     0.164 HD
HETATM    7  C   UNL     1      61.827  11.262   3.323  1.00  0.00     0.111 A 
HETATM    8  C   UNL     1      62.466   8.789   2.389  1.00  0.00     0.035 A 
HETATM    9  C   UNL     1      61.733   9.693   1.640  1.00  0.00     0.088 A 
ENDROOT
BRANCH   1  10
HETATM   10  C   UNL     1      63.681   8.141   4.475  1.00  0.00     0.419 C 
HETATM   11  F   UNL     1      63.133   7.789   5.664  1.00  0.00    -0.166 F 
HETATM   12  F   UNL     1      64.936   8.587   4.762  1.00  0.00    -0.166 F 
HETATM   13  F   UNL     1      63.850   6.978   3.787  1.00  0.00    -0.166 F 
ENDBRANCH   1  10
TORSDOF 1
ENDMDL
MODEL 2
REMARK VINA RESULT:      -4.9      2.847      4.171
REMARK  1 active torsions:
REMARK  status: ('A' for Active; 'I' for Inactive)
REMARK    1  A    between atoms: C_1  and  C_2 
ROOT
HETATM    1  C   UNL     1      62.380   9.880   3.187  1.00  0.00     0.071 A 
HETATM    2  N   UNL     1      63.447   6.591   2.269  1.00  0.00    -0.191 NA
HETATM    3  C   UNL     1      63.256   7.559   2.880  1.00  0.00     0.101 C 
HETATM    4  C   UNL     1      63.038   8.737   3.661  1.00  0.00     0.075 A 
HETATM    5  N   UNL     1      63.375   9.798   5.816  1.00  0.00    -0.374 N 
ATOM      6  HN  UNL     1      63.734   9.761   6.770  1.00  0.00     0.164 HD
HETATM    7  C   UNL     1      63.509   8.751   4.970  1.00  0.00     0.111 A 
HETATM    8  C   UNL     1      62.240  10.976   4.057  1.00  0.00     0.035 A 
HETATM    9  C   UNL     1      62.745  10.890   5.343  1.00  0.00     0.088 A 
ENDROOT
BRANCH   1  10
HETATM   10  C   UNL     1      61.810   9.999   1.798  1.00  0.00     0.419 C 
HETATM   11  F   UNL     1      62.669   9.699   0.793  1.00  0.00    -0.166 F 
HETATM   12  F   UNL     1      61.364  11.261   1.540  1.00  0.00    -0.166 F 
HETATM   13  F   UNL     1      60.735   9.184   1.622  1.00  0.00    -0.166 F 
ENDBRANCH   1  10
TORSDOF 1
ENDMDL
MODEL 3
REMARK VINA RESULT:      -4.7      2.701      3.627
REMARK  1 active torsions:
REMARK  status: ('A' for Active; 'I' for Inactive)
REMARK    1  A    between atoms: C_1  and  C_2 
ROOT
HETATM    1  C   UNL     1      62.655   8.602   2.598  1.00  0.00     0.071 A 
HETATM    2  N   UNL     1      61.840  11.781   4.022  1.00  0.00    -0.191 NA
HETATM    3  C   UNL     1      62.227  10.694   3.898  1.00  0.00     0.101 C 
HETATM    4  C   UNL     1      62.712   9.354   3.779  1.00  0.00     0.075 A 
HETATM    5  N   UNL     1      63.767   7.501   4.935  1.00  0.00    -0.374 N 
ATOM      6  HN  UNL     1      64.173   7.107   5.784  1.00  0.00     0.164 HD
HETATM    7  C   UNL     1      63.273   8.760   4.905  1.00  0.00     0.111 A 
HETATM    8  C   UNL     1      63.161   7.289   2.620  1.00  0.00     0.035 A 
HETATM    9  C   UNL     1      63.700   6.790   3.793  1.00  0.00     0.088 A 
ENDROOT
BRANCH   1  10
HETATM   10  C   UNL     1      62.086   9.121   1.305  1.00  0.00     0.419 C 
HETATM   11  F   UNL     1      62.388   8.390   0.204  1.00  0.00    -0.166 F 
HETATM   12  F   UNL     1      62.510  10.388   1.037  1.00  0.00    -0.166 F 
HETATM   13  F   UNL     1      60.726   9.187   1.343  1.00  0.00    -0.166 F 
ENDBRANCH   1  10
TORSDOF 1
ENDMDL
MODEL 4
REMARK VINA RESULT:      -4.7      1.679      2.229
REMARK  1 active torsions:
REMARK  status: ('A' for Active; 'I' for Inactive)
REMARK    1  A    between atoms: C_1  and  C_2 
ROOT
HETATM    1  C   UNL     1      62.586   8.800   2.737  1.00  0.00     0.071 A 
HETATM    2  N   UNL     1      63.219   8.163   6.200  1.00  0.00    -0.191 NA
HETATM    3  C   UNL     1      62.921   8.693   5.212  1.00  0.00     0.101 C 
HETATM    4  C   UNL     1      62.547   9.378   4.013  1.00  0.00     0.075 A 
HETATM    5  N   UNL     1      61.744  11.463   3.070  1.00  0.00    -0.374 N 
ATOM      6  HN  UNL     1      61.436  12.427   3.196  1.00  0.00     0.164 HD
HETATM    7  C   UNL     1      62.123  10.698   4.120  1.00  0.00     0.111 A 
HETATM    8  C   UNL     1      62.199   9.588   1.638  1.00  0.00     0.035 A 
HETATM    9  C   UNL     1      61.791  10.893   1.850  1.00  0.00     0.088 A 
ENDROOT
BRANCH   1  10
HETATM   10  C   UNL     1      63.014   7.379   2.477  1.00  0.00     0.419 C 
HETATM   11  F   UNL     1      64.249   7.055   2.931  1.00  0.00    -0.166 F 
HETATM   12  F   UNL     1      63.018   7.088   1.146  1.00  0.00    -0.166 F 
HETATM   13  F   UNL     1      62.163   6.484   3.048  1.00  0.00    -0.166 F 
ENDBRANCH   1  10
TORSDOF 1
ENDMDL
MODEL 5
REMARK VINA RESULT:      -4.7      1.393      2.042
REMARK  1 active torsions:
REMARK  status: ('A' for Active; 'I' for Inactive)
REMARK    1  A    between atoms: C_1  and  C_2 
ROOT
HETATM    1  C   UNL     1      62.905   8.535   3.284  1.00  0.00     0.071 A 
HETATM    2  N   UNL     1      61.948  11.858   4.202  1.00  0.00    -0.191 NA
HETATM    3  C   UNL     1      62.088  10.877   3.599  1.00  0.00     0.101 C 
HETATM    4  C   UNL     1      62.244   9.683   2.826  1.00  0.00     0.075 A 
HETATM    5  N   UNL     1      61.786   8.601   0.704  1.00  0.00    -0.374 N 
ATOM      6  HN  UNL     1      61.375   8.629  -0.229  1.00  0.00     0.164 HD
HETATM    7  C   UNL     1      61.709   9.661   1.542  1.00  0.00     0.111 A 
HETATM    8  C   UNL     1      62.995   7.430   2.418  1.00  0.00     0.035 A 
HETATM    9  C   UNL     1      62.429   7.508   1.158  1.00  0.00     0.088 A 
ENDROOT
BRANCH   1  10
HETATM   10  C   UNL     1      63.521   8.417   4.653  1.00  0.00     0.419 C 
HETATM   11  F   UNL     1      64.495   9.318   4.929  1.00  0.00    -0.166 F 
HETATM   12  F   UNL     1      64.082   7.191   4.851  1.00  0.00    -0.166 F 
HETATM   13  F   UNL     1      62.592   8.562   5.637  1.00  0.00    -0.166 F 
ENDBRANCH   1  10
TORSDOF 1
ENDMDL
MODEL 6
REMARK VINA RESULT:      -4.3      2.160      2.930
REMARK  1 active torsions:
REMARK  status: ('A' for Active; 'I' for Inactive)
REMARK    1  A    between atoms: C_1  and  C_2 
ROOT
HETATM    1  C   UNL     1      62.719   9.430   3.803  1.00  0.00     0.071 A 
HETATM    2  N   UNL     1      64.063   6.116   3.741  1.00  0.00    -0.191 NA
HETATM    3  C   UNL     1      63.558   7.107   3.415  1.00  0.00     0.101 C 
HETATM    4  C   UNL     1      62.929   8.316   2.979  1.00  0.00     0.075 A 
HETATM    5  N   UNL     1      61.887   9.468   1.116  1.00  0.00    -0.374 N 
ATOM      6  HN  UNL     1      61.590   9.478   0.141  1.00  0.00     0.164 HD
HETATM    7  C   UNL     1      62.498   8.389   1.659  1.00  0.00     0.111 A 
HETATM    8  C   UNL     1      62.080  10.555   3.250  1.00  0.00     0.035 A 
HETATM    9  C   UNL     1      61.688  10.529   1.923  1.00  0.00     0.088 A 
ENDROOT
BRANCH   1  10
HETATM   10  C   UNL     1      63.144   9.493   5.246  1.00  0.00     0.419 C 
HETATM   11  F   UNL     1      62.655   8.506   6.037  1.00  0.00    -0.166 F 
HETATM   12  F   UNL     1      62.766  10.662   5.835  1.00  0.00    -0.166 F 
HETATM   13  F   UNL     1      64.498   9.435   5.376  1.00  0.00    -0.166 F 
ENDBRANCH   1  10
TORSDOF 1
ENDMDL
MODEL 7
REMARK VINA RESULT:      -4.3      1.476      2.931
REMARK  1 active torsions:
REMARK  status: ('A' for Active; 'I' for Inactive)
REMARK    1  A    between atoms: C_1  and  C_2 
ROOT
HETATM    1  C   UNL     1      62.708   9.102   3.722  1.00  0.00     0.071 A 
HETATM    2  N   UNL     1      62.755   6.801   0.983  1.00  0.00    -0.191 NA
HETATM    3  C   UNL     1      62.596   7.761   1.615  1.00  0.00     0.101 C 
HETATM    4  C   UNL     1      62.386   8.961   2.365  1.00  0.00     0.075 A 
HETATM    5  N   UNL     1      61.571  11.244   2.297  1.00  0.00    -0.374 N 
ATOM      6  HN  UNL     1      61.162  12.019   1.775  1.00  0.00     0.164 HD
HETATM    7  C   UNL     1      61.826  10.052   1.710  1.00  0.00     0.111 A 
HETATM    8  C   UNL     1      62.441  10.336   4.344  1.00  0.00     0.035 A 
HETATM    9  C   UNL     1      61.881  11.362   3.603  1.00  0.00     0.088 A 
ENDROOT
BRANCH   1  10
HETATM   10  C   UNL     1      63.327   8.008   4.551  1.00  0.00     0.419 C 
HETATM   11  F   UNL     1      63.562   8.327   5.848  1.00  0.00    -0.166 F 
HETATM   12  F   UNL     1      64.527   7.607   4.045  1.00  0.00    -0.166 F 
HETATM   13  F   UNL     1      62.547   6.893   4.580  1.00  0.00    -0.166 F 
ENDBRANCH   1  10
TORSDOF 1
ENDMDL
MODEL 8
REMARK VINA RESULT:      -4.2      2.633      3.478
REMARK  1 active torsions:
REMARK  status: ('A' for Active; 'I' for Inactive)
REMARK    1  A    between atoms: C_1  and  C_2 
ROOT
HETATM    1  C   UNL     1      63.018   8.462   3.338  1.00  0.00     0.071 A 
HETATM    2  N   UNL     1      63.112  10.951   5.905  1.00  0.00    -0.191 NA
HETATM    3  C   UNL     1      63.353  10.010   5.272  1.00  0.00     0.101 C 
HETATM    4  C   UNL     1      63.677   8.839   4.516  1.00  0.00     0.075 A 
HETATM    5  N   UNL     1      65.112   6.890   4.365  1.00  0.00    -0.374 N 
ATOM      6  HN  UNL     1      65.874   6.325   4.740  1.00  0.00     0.164 HD
HETATM    7  C   UNL     1      64.705   8.025   4.979  1.00  0.00     0.111 A 
HETATM    8  C   UNL     1      63.430   7.280   2.695  1.00  0.00     0.035 A 
HETATM    9  C   UNL     1      64.466   6.539   3.237  1.00  0.00     0.088 A 
ENDROOT
BRANCH   1  10
HETATM   10  C   UNL     1      61.896   9.253   2.718  1.00  0.00     0.419 C 
HETATM   11  F   UNL     1      62.183  10.550   2.450  1.00  0.00    -0.166 F 
HETATM   12  F   UNL     1      60.791   9.274   3.515  1.00  0.00    -0.166 F 
HETATM   13  F   UNL     1      61.490   8.712   1.538  1.00  0.00    -0.166 F 
ENDBRANCH   1  10
TORSDOF 1
ENDMDL
MODEL 9
REMARK VINA RESULT:      -4.2      2.794      4.346
REMARK  1 active torsions:
REMARK  status: ('A' for Active; 'I' for Inactive)
REMARK    1  A    between atoms: C_1  and  C_2 
ROOT
HETATM    1  C   UNL     1      63.131   9.090   3.956  1.00  0.00     0.071 A 
HETATM    2  N   UNL     1      61.807   7.609   0.981  1.00  0.00    -0.191 NA
HETATM    3  C   UNL     1      62.440   7.789   1.936  1.00  0.00     0.101 C 
HETATM    4  C   UNL     1      63.239   7.980   3.107  1.00  0.00     0.075 A 
HETATM    5  N   UNL     1      65.006   7.063   4.493  1.00  0.00    -0.374 N 
ATOM      6  HN  UNL     1      65.681   6.324   4.685  1.00  0.00     0.164 HD
HETATM    7  C   UNL     1      64.183   7.008   3.420  1.00  0.00     0.111 A 
HETATM    8  C   UNL     1      63.985   9.159   5.072  1.00  0.00     0.035 A 
HETATM    9  C   UNL     1      64.892   8.138   5.297  1.00  0.00     0.088 A 
ENDROOT
BRANCH   1  10
HETATM   10  C   UNL     1      62.147  10.210   3.744  1.00  0.00     0.419 C 
HETATM   11  F   UNL     1      62.242  10.845   2.551  1.00  0.00    -0.166 F 
HETATM   12  F   UNL     1      62.273  11.181   4.692  1.00  0.00    -0.166 F 
HETATM   13  F   UNL     1      60.860   9.774   3.830  1.00  0.00    -0.166 F 
ENDBRANCH   1  10
TORSDOF 1
ENDMDL
