MODEL 1
REMARK VINA RESULT:      -5.3      0.000      0.000
REMARK  1 active torsions:
REMARK  status: ('A' for Active; 'I' for Inactive)
REMARK    1  A    between atoms: C_1  and  C_2 
ROOT
HETATM    1  C   UNL     1      63.228   8.862   3.921  1.00  0.00     0.071 A 
HETATM    2  C   UNL     1      62.718  10.117   4.275  1.00  0.00     0.075 A 
HETATM    3  N   UNL     1      63.259  11.369   6.476  1.00  0.00    -0.191 NA
HETATM    4  C   UNL     1      63.029  10.794   5.495  1.00  0.00     0.101 C 
HETATM    5  N   UNL     1      61.463  10.211   2.203  1.00  0.00    -0.368 N 
ATOM      6  HN  UNL     1      60.827  10.714   1.585  1.00  0.00     0.165 HD
HETATM    7  C   UNL     1      62.821   8.298   2.695  1.00  0.00     0.042 A 
HETATM    8  C   UNL     1      61.852  10.740   3.387  1.00  0.00     0.111 A 
HETATM    9  C   UNL     1      61.946   8.995   1.869  1.00  0.00     0.005 A 
HETATM   10  C   UNL     1      61.506   8.439   0.549  1.00  0.00     0.068 C 
ENDROOT
BRANCH   1  11
HETATM   11  C   UNL     1      64.191   8.081   4.777  1.00  0.00     0.419 C 
HETATM   12  F   UNL     1      65.338   8.732   5.093  1.00  0.00    -0.166 F 
HETATM   13  F   UNL     1      64.580   6.925   4.171  1.00  0.00    -0.166 F 
HETATM   14  F   UNL     1      63.633   7.710   5.962  1.00  0.00    -0.166 F 
ENDBRANCH   1  11
TORSDOF 1
ENDMDL
MODEL 2
REMARK VINA RESULT:      -5.1      2.474      3.901
REMARK  1 active torsions:
REMARK  status: ('A' for Active; 'I' for Inactive)
REMARK    1  A    between atoms: C_1  and  C_2 
ROOT
HETATM    1  C   UNL     1      62.335   8.867   2.956  1.00  0.00     0.071 A 
HETATM    2  C   UNL     1      62.275  10.182   3.433  1.00  0.00     0.075 A 
HETATM    3  N   UNL     1      61.632  12.246   2.008  1.00  0.00    -0.191 NA
HETATM    4  C   UNL     1      61.916  11.310   2.632  1.00  0.00     0.101 C 
HETATM    5  N   UNL     1      62.954   9.433   5.636  1.00  0.00    -0.368 N 
ATOM      6  HN  UNL     1      63.170   9.651   6.609  1.00  0.00     0.165 HD
HETATM    7  C   UNL     1      62.725   7.850   3.851  1.00  0.00     0.042 A 
HETATM    8  C   UNL     1      62.588  10.404   4.767  1.00  0.00     0.111 A 
HETATM    9  C   UNL     1      63.024   8.167   5.172  1.00  0.00     0.005 A 
HETATM   10  C   UNL     1      63.422   7.112   6.159  1.00  0.00     0.068 C 
ENDROOT
BRANCH   1  11
HETATM   11  C   UNL     1      62.003   8.477   1.540  1.00  0.00     0.419 C 
HETATM   12  F   UNL     1      62.611   9.218   0.580  1.00  0.00    -0.166 F 
HETATM   13  F   UNL     1      60.668   8.577   1.289  1.00  0.00    -0.166 F 
HETATM   14  F   UNL     1      62.334   7.182   1.277  1.00  0.00    -0.166 F 
ENDBRANCH   1  11
TORSDOF 1
ENDMDL
MODEL 3
REMARK VINA RESULT:      -4.9      1.936      2.797
REMARK  1 active torsions:
REMARK  status: ('A' for Active; 'I' for Inactive)
REMARK    1  A    between atoms: C_1  and  C_2 
ROOT
HETATM    1  C   UNL     1      62.833   8.477   3.414  1.00  0.00     0.071 A 
HETATM    2  C   UNL     1      62.955   8.842   4.760  1.00  0.00     0.075 A 
HETATM    3  N   UNL     1      63.707   7.254   6.662  1.00  0.00    -0.191 NA
HETATM    4  C   UNL     1      63.373   7.951   5.797  1.00  0.00     0.101 C 
HETATM    5  N   UNL     1      62.225  11.092   4.235  1.00  0.00    -0.368 N 
ATOM      6  HN  UNL     1      62.013  12.041   4.545  1.00  0.00     0.165 HD
HETATM    7  C   UNL     1      62.389   9.451   2.496  1.00  0.00     0.042 A 
HETATM    8  C   UNL     1      62.644  10.148   5.109  1.00  0.00     0.111 A 
HETATM    9  C   UNL     1      62.096  10.736   2.938  1.00  0.00     0.005 A 
HETATM   10  C   UNL     1      61.641  11.805   1.992  1.00  0.00     0.068 C 
ENDROOT
BRANCH   1  11
HETATM   11  C   UNL     1      63.156   7.102   2.889  1.00  0.00     0.419 C 
HETATM   12  F   UNL     1      62.468   6.088   3.469  1.00  0.00    -0.166 F 
HETATM   13  F   UNL     1      64.473   6.795   3.056  1.00  0.00    -0.166 F 
HETATM   14  F   UNL     1      62.918   6.999   1.552  1.00  0.00    -0.166 F 
ENDBRANCH   1  11
TORSDOF 1
ENDMDL
MODEL 4
REMARK VINA RESULT:      -4.7      2.997      4.662
REMARK  1 active torsions:
REMARK  status: ('A' for Active; 'I' for Inactive)
REMARK    1  A    between atoms: C_1  and  C_2 
ROOT
HETATM    1  C   UNL     1      62.216   9.392   3.040  1.00  0.00     0.071 A 
HETATM    2  C   UNL     1      62.409   8.090   3.516  1.00  0.00     0.075 A 
HETATM    3  N   UNL     1      62.012   5.934   2.138  1.00  0.00    -0.191 NA
HETATM    4  C   UNL     1      62.186   6.910   2.740  1.00  0.00     0.101 C 
HETATM    5  N   UNL     1      63.080   8.960   5.676  1.00  0.00    -0.368 N 
ATOM      6  HN  UNL     1      63.399   8.791   6.630  1.00  0.00     0.165 HD
HETATM    7  C   UNL     1      62.453  10.467   3.920  1.00  0.00     0.042 A 
HETATM    8  C   UNL     1      62.840   7.935   4.827  1.00  0.00     0.111 A 
HETATM    9  C   UNL     1      62.880  10.216   5.220  1.00  0.00     0.005 A 
HETATM   10  C   UNL     1      63.163  11.331   6.180  1.00  0.00     0.068 C 
ENDROOT
BRANCH   1  11
HETATM   11  C   UNL     1      61.771   9.710   1.636  1.00  0.00     0.419 C 
HETATM   12  F   UNL     1      60.586   9.162   1.269  1.00  0.00    -0.166 F 
HETATM   13  F   UNL     1      62.675   9.280   0.712  1.00  0.00    -0.166 F 
HETATM   14  F   UNL     1      61.642  11.050   1.434  1.00  0.00    -0.166 F 
ENDBRANCH   1  11
TORSDOF 1
ENDMDL
MODEL 5
REMARK VINA RESULT:      -4.5      2.770      4.578
REMARK  1 active torsions:
REMARK  status: ('A' for Active; 'I' for Inactive)
REMARK    1  A    between atoms: C_1  and  C_2 
ROOT
HETATM    1  C   UNL     1      63.182   8.965   3.905  1.00  0.00     0.071 A 
HETATM    2  C   UNL     1      63.190   7.849   3.060  1.00  0.00     0.075 A 
HETATM    3  N   UNL     1      61.507   7.436   1.136  1.00  0.00    -0.191 NA
HETATM    4  C   UNL     1      62.253   7.638   2.001  1.00  0.00     0.101 C 
HETATM    5  N   UNL     1      65.107   6.949   4.238  1.00  0.00    -0.368 N 
ATOM      6  HN  UNL     1      65.805   6.213   4.345  1.00  0.00     0.165 HD
HETATM    7  C   UNL     1      64.153   9.037   4.925  1.00  0.00     0.042 A 
HETATM    8  C   UNL     1      64.166   6.884   3.269  1.00  0.00     0.111 A 
HETATM    9  C   UNL     1      65.091   8.020   5.061  1.00  0.00     0.005 A 
HETATM   10  C   UNL     1      66.151   8.069   6.118  1.00  0.00     0.068 C 
ENDROOT
BRANCH   1  11
HETATM   11  C   UNL     1      62.196  10.098   3.783  1.00  0.00     0.419 C 
HETATM   12  F   UNL     1      62.231  10.768   2.604  1.00  0.00    -0.166 F 
HETATM   13  F   UNL     1      62.389  11.041   4.747  1.00  0.00    -0.166 F 
HETATM   14  F   UNL     1      60.912   9.673   3.933  1.00  0.00    -0.166 F 
ENDBRANCH   1  11
TORSDOF 1
ENDMDL
MODEL 6
REMARK VINA RESULT:      -4.5      2.838      3.554
REMARK  1 active torsions:
REMARK  status: ('A' for Active; 'I' for Inactive)
REMARK    1  A    between atoms: C_1  and  C_2 
ROOT
HETATM    1  C   UNL     1      62.938   8.676   3.458  1.00  0.00     0.071 A 
HETATM    2  C   UNL     1      63.627   9.010   4.630  1.00  0.00     0.075 A 
HETATM    3  N   UNL     1      63.182  11.123   6.059  1.00  0.00    -0.191 NA
HETATM    4  C   UNL     1      63.367  10.181   5.408  1.00  0.00     0.101 C 
HETATM    5  N   UNL     1      64.989   7.017   4.418  1.00  0.00    -0.368 N 
ATOM      6  HN  UNL     1      65.731   6.419   4.781  1.00  0.00     0.165 HD
HETATM    7  C   UNL     1      63.312   7.501   2.776  1.00  0.00     0.042 A 
HETATM    8  C   UNL     1      64.630   8.152   5.060  1.00  0.00     0.111 A 
HETATM    9  C   UNL     1      64.332   6.702   3.280  1.00  0.00     0.005 A 
HETATM   10  C   UNL     1      64.745   5.435   2.597  1.00  0.00     0.068 C 
ENDROOT
BRANCH   1  11
HETATM   11  C   UNL     1      61.816   9.503   2.885  1.00  0.00     0.419 C 
HETATM   12  F   UNL     1      60.782   9.735   3.732  1.00  0.00    -0.166 F 
HETATM   13  F   UNL     1      61.266   8.914   1.787  1.00  0.00    -0.166 F 
HETATM   14  F   UNL     1      62.244  10.728   2.474  1.00  0.00    -0.166 F 
ENDBRANCH   1  11
TORSDOF 1
ENDMDL
MODEL 7
REMARK VINA RESULT:      -4.4      2.715      3.972
REMARK  1 active torsions:
REMARK  status: ('A' for Active; 'I' for Inactive)
REMARK    1  A    between atoms: C_1  and  C_2 
ROOT
HETATM    1  C   UNL     1      62.188   8.156   4.065  1.00  0.00     0.071 A 
HETATM    2  C   UNL     1      62.708   9.419   4.371  1.00  0.00     0.075 A 
HETATM    3  N   UNL     1      61.814  11.659   3.429  1.00  0.00    -0.191 NA
HETATM    4  C   UNL     1      62.201  10.646   3.843  1.00  0.00     0.101 C 
HETATM    5  N   UNL     1      64.377   8.402   5.805  1.00  0.00    -0.368 N 
ATOM      6  HN  UNL     1      65.168   8.505   6.441  1.00  0.00     0.165 HD
HETATM    7  C   UNL     1      62.799   7.024   4.640  1.00  0.00     0.042 A 
HETATM    8  C   UNL     1      63.790   9.482   5.240  1.00  0.00     0.111 A 
HETATM    9  C   UNL     1      63.882   7.183   5.498  1.00  0.00     0.005 A 
HETATM   10  C   UNL     1      64.547   6.007   6.146  1.00  0.00     0.068 C 
ENDROOT
BRANCH   1  11
HETATM   11  C   UNL     1      61.006   7.939   3.155  1.00  0.00     0.419 C 
HETATM   12  F   UNL     1      60.740   6.644   2.856  1.00  0.00    -0.166 F 
HETATM   13  F   UNL     1      61.170   8.567   1.957  1.00  0.00    -0.166 F 
HETATM   14  F   UNL     1      59.858   8.444   3.684  1.00  0.00    -0.166 F 
ENDBRANCH   1  11
TORSDOF 1
ENDMDL
MODEL 8
REMARK VINA RESULT:      -4.3      1.622      2.154
REMARK  1 active torsions:
REMARK  status: ('A' for Active; 'I' for Inactive)
REMARK    1  A    between atoms: C_1  and  C_2 
ROOT
HETATM    1  C   UNL     1      63.269   7.572   3.099  1.00  0.00     0.071 A 
HETATM    2  C   UNL     1      63.271   8.728   3.888  1.00  0.00     0.075 A 
HETATM    3  N   UNL     1      64.944   9.211   5.805  1.00  0.00    -0.191 NA
HETATM    4  C   UNL     1      64.204   8.979   4.942  1.00  0.00     0.101 C 
HETATM    5  N   UNL     1      61.351   9.578   2.678  1.00  0.00    -0.368 N 
ATOM      6  HN  UNL     1      60.664  10.317   2.530  1.00  0.00     0.165 HD
HETATM    7  C   UNL     1      62.277   7.443   2.106  1.00  0.00     0.042 A 
HETATM    8  C   UNL     1      62.301   9.689   3.634  1.00  0.00     0.111 A 
HETATM    9  C   UNL     1      61.343   8.457   1.925  1.00  0.00     0.005 A 
HETATM   10  C   UNL     1      60.285   8.367   0.868  1.00  0.00     0.068 C 
ENDROOT
BRANCH   1  11
HETATM   11  C   UNL     1      64.273   6.458   3.249  1.00  0.00     0.419 C 
HETATM   12  F   UNL     1      64.301   5.567   2.227  1.00  0.00    -0.166 F 
HETATM   13  F   UNL     1      64.044   5.722   4.372  1.00  0.00    -0.166 F 
HETATM   14  F   UNL     1      65.544   6.931   3.368  1.00  0.00    -0.166 F 
ENDBRANCH   1  11
TORSDOF 1
ENDMDL
MODEL 9
REMARK VINA RESULT:      -4.3      2.275      3.041
REMARK  1 active torsions:
REMARK  status: ('A' for Active; 'I' for Inactive)
REMARK    1  A    between atoms: C_1  and  C_2 
ROOT
HETATM    1  C   UNL     1      62.948   9.247   4.216  1.00  0.00     0.071 A 
HETATM    2  C   UNL     1      63.328   7.943   4.554  1.00  0.00     0.075 A 
HETATM    3  N   UNL     1      64.207   7.212   6.878  1.00  0.00    -0.191 NA
HETATM    4  C   UNL     1      63.810   7.557   5.844  1.00  0.00     0.101 C 
HETATM    5  N   UNL     1      62.808   7.190   2.310  1.00  0.00    -0.368 N 
ATOM      6  HN  UNL     1      62.756   6.433   1.629  1.00  0.00     0.165 HD
HETATM    7  C   UNL     1      62.510   9.494   2.899  1.00  0.00     0.042 A 
HETATM    8  C   UNL     1      63.236   6.965   3.574  1.00  0.00     0.111 A 
HETATM    9  C   UNL     1      62.453   8.451   1.981  1.00  0.00     0.005 A 
HETATM   10  C   UNL     1      61.975   8.668   0.578  1.00  0.00     0.068 C 
ENDROOT
BRANCH   1  11
HETATM   11  C   UNL     1      62.976  10.402   5.183  1.00  0.00     0.419 C 
HETATM   12  F   UNL     1      62.302  10.200   6.342  1.00  0.00    -0.166 F 
HETATM   13  F   UNL     1      62.439  11.529   4.638  1.00  0.00    -0.166 F 
HETATM   14  F   UNL     1      64.247  10.733   5.542  1.00  0.00    -0.166 F 
ENDBRANCH   1  11
TORSDOF 1
ENDMDL
