MODEL 1
REMARK VINA RESULT:      -4.8      0.000      0.000
REMARK  3 active torsions:
REMARK  status: ('A' for Active; 'I' for Inactive)
REMARK    1  A    between atoms: C_1  and  O_2 
REMARK    2  A    between atoms: O_2  and  C_6 
REMARK    3  A    between atoms: C_7  and  N_8 
ROOT
HETATM    1  C   UNL     1      63.588   9.074   5.103  1.00  0.00     0.078 A 
HETATM    2  C   UNL     1      62.040  10.481   3.216  1.00  0.00     0.025 A 
HETATM    3  C   UNL     1      63.236   8.477   3.885  1.00  0.00     0.039 A 
HETATM    4  C   UNL     1      63.119  10.374   5.387  1.00  0.00     0.039 A 
HETATM    5  C   UNL     1      62.474   9.175   2.944  1.00  0.00     0.031 A 
HETATM    6  C   UNL     1      62.353  11.068   4.448  1.00  0.00     0.031 A 
ENDROOT
BRANCH   1   7
HETATM    7  O   UNL     1      64.368   8.365   5.961  1.00  0.00    -0.255 OA
BRANCH   7   8
HETATM    8  C   UNL     1      65.701   8.008   5.818  1.00  0.00     0.530 C 
HETATM    9  F   UNL     1      66.204   8.308   4.565  1.00  0.00    -0.144 F 
HETATM   10  F   UNL     1      65.807   6.642   5.994  1.00  0.00    -0.144 F 
HETATM   11  F   UNL     1      66.456   8.643   6.784  1.00  0.00    -0.144 F 
ENDBRANCH   7   8
ENDBRANCH   1   7
BRANCH   2  12
HETATM   12  N   UNL     1      61.295  11.202   2.252  1.00  0.00    -0.399 N 
HETATM   13  H   UNL     1      61.565  12.117   2.005  1.00  0.00     0.156 HD
HETATM   14  H   UNL     1      60.508  10.791   1.829  1.00  0.00     0.156 HD
ENDBRANCH   2  12
TORSDOF 3
ENDMDL
MODEL 2
REMARK VINA RESULT:      -4.7      0.593      1.517
REMARK  3 active torsions:
REMARK  status: ('A' for Active; 'I' for Inactive)
REMARK    1  A    between atoms: C_1  and  O_2 
REMARK    2  A    between atoms: O_2  and  C_6 
REMARK    3  A    between atoms: C_7  and  N_8 
ROOT
HETATM    1  C   UNL     1      63.398   8.851   5.022  1.00  0.00     0.078 A 
HETATM    2  C   UNL     1      62.018  10.467   3.173  1.00  0.00     0.025 A 
HETATM    3  C   UNL     1      63.059  10.172   5.346  1.00  0.00     0.039 A 
HETATM    4  C   UNL     1      63.076   8.358   3.740  1.00  0.00     0.039 A 
HETATM    5  C   UNL     1      62.368  10.973   4.433  1.00  0.00     0.031 A 
HETATM    6  C   UNL     1      62.389   9.162   2.827  1.00  0.00     0.031 A 
ENDROOT
BRANCH   1   7
HETATM    7  O   UNL     1      64.031   8.105   5.965  1.00  0.00    -0.255 OA
BRANCH   7   8
HETATM    8  C   UNL     1      65.304   7.557   5.917  1.00  0.00     0.530 C 
HETATM    9  F   UNL     1      66.188   8.319   5.174  1.00  0.00    -0.144 F 
HETATM   10  F   UNL     1      65.221   6.314   5.319  1.00  0.00    -0.144 F 
HETATM   11  F   UNL     1      65.791   7.403   7.200  1.00  0.00    -0.144 F 
ENDBRANCH   7   8
ENDBRANCH   1   7
BRANCH   2  12
HETATM   12  N   UNL     1      61.289  11.266   2.258  1.00  0.00    -0.399 N 
HETATM   13  H   UNL     1      60.304  11.252   2.269  1.00  0.00     0.156 HD
HETATM   14  H   UNL     1      61.766  11.833   1.611  1.00  0.00     0.156 HD
ENDBRANCH   2  12
TORSDOF 3
ENDMDL
MODEL 3
REMARK VINA RESULT:      -4.6      4.092      4.832
REMARK  3 active torsions:
REMARK  status: ('A' for Active; 'I' for Inactive)
REMARK    1  A    between atoms: C_1  and  O_2 
REMARK    2  A    between atoms: O_2  and  C_6 
REMARK    3  A    between atoms: C_7  and  N_8 
ROOT
HETATM    1  C   UNL     1      62.308   9.282   2.976  1.00  0.00     0.078 A 
HETATM    2  C   UNL     1      63.064  10.717   5.280  1.00  0.00     0.025 A 
HETATM    3  C   UNL     1      63.184   8.715   3.912  1.00  0.00     0.039 A 
HETATM    4  C   UNL     1      61.845  10.598   3.184  1.00  0.00     0.039 A 
HETATM    5  C   UNL     1      63.555   9.422   5.059  1.00  0.00     0.031 A 
HETATM    6  C   UNL     1      62.221  11.305   4.329  1.00  0.00     0.031 A 
ENDROOT
BRANCH   1   7
HETATM    7  O   UNL     1      61.947   8.531   1.902  1.00  0.00    -0.255 OA
BRANCH   7   8
HETATM    8  C   UNL     1      60.711   7.968   1.622  1.00  0.00     0.530 C 
HETATM    9  F   UNL     1      59.926   7.812   2.750  1.00  0.00    -0.144 F 
HETATM   10  F   UNL     1      60.916   6.714   1.080  1.00  0.00    -0.144 F 
HETATM   11  F   UNL     1      60.044   8.750   0.700  1.00  0.00    -0.144 F 
ENDBRANCH   7   8
ENDBRANCH   1   7
BRANCH   2  12
HETATM   12  N   UNL     1      63.412  11.423   6.457  1.00  0.00    -0.399 N 
HETATM   13  H   UNL     1      64.143  11.094   7.030  1.00  0.00     0.156 HD
HETATM   14  H   UNL     1      62.924  12.241   6.702  1.00  0.00     0.156 HD
ENDBRANCH   2  12
TORSDOF 3
ENDMDL
MODEL 4
REMARK VINA RESULT:      -4.4      4.133      5.147
REMARK  3 active torsions:
REMARK  status: ('A' for Active; 'I' for Inactive)
REMARK    1  A    between atoms: C_1  and  O_2 
REMARK    2  A    between atoms: O_2  and  C_6 
REMARK    3  A    between atoms: C_7  and  N_8 
ROOT
HETATM    1  C   UNL     1      62.722   8.331   3.260  1.00  0.00     0.078 A 
HETATM    2  C   UNL     1      64.773   8.392   5.191  1.00  0.00     0.025 A 
HETATM    3  C   UNL     1      62.754   9.340   4.233  1.00  0.00     0.039 A 
HETATM    4  C   UNL     1      63.709   7.323   3.290  1.00  0.00     0.039 A 
HETATM    5  C   UNL     1      63.773   9.376   5.187  1.00  0.00     0.031 A 
HETATM    6  C   UNL     1      64.725   7.359   4.248  1.00  0.00     0.031 A 
ENDROOT
BRANCH   1   7
HETATM    7  O   UNL     1      61.732   8.370   2.331  1.00  0.00    -0.255 OA
BRANCH   7   8
HETATM    8  C   UNL     1      61.640   9.177   1.206  1.00  0.00     0.530 C 
HETATM    9  F   UNL     1      61.556  10.522   1.517  1.00  0.00    -0.144 F 
HETATM   10  F   UNL     1      60.491   8.835   0.518  1.00  0.00    -0.144 F 
HETATM   11  F   UNL     1      62.731   8.959   0.388  1.00  0.00    -0.144 F 
ENDBRANCH   7   8
ENDBRANCH   1   7
BRANCH   2  12
HETATM   12  N   UNL     1      65.826   8.445   6.136  1.00  0.00    -0.399 N 
HETATM   13  H   UNL     1      66.624   7.880   6.016  1.00  0.00     0.156 HD
HETATM   14  H   UNL     1      65.760   9.045   6.914  1.00  0.00     0.156 HD
ENDBRANCH   2  12
TORSDOF 3
ENDMDL
MODEL 5
REMARK VINA RESULT:      -4.1      2.685      3.354
REMARK  3 active torsions:
REMARK  status: ('A' for Active; 'I' for Inactive)
REMARK    1  A    between atoms: C_1  and  O_2 
REMARK    2  A    between atoms: O_2  and  C_6 
REMARK    3  A    between atoms: C_7  and  N_8 
ROOT
HETATM    1  C   UNL     1      62.482   8.497   3.620  1.00  0.00     0.078 A 
HETATM    2  C   UNL     1      61.883  10.971   2.412  1.00  0.00     0.025 A 
HETATM    3  C   UNL     1      62.418   9.667   4.389  1.00  0.00     0.039 A 
HETATM    4  C   UNL     1      62.284   8.584   2.226  1.00  0.00     0.039 A 
HETATM    5  C   UNL     1      62.115  10.894   3.793  1.00  0.00     0.031 A 
HETATM    6  C   UNL     1      61.985   9.812   1.631  1.00  0.00     0.031 A 
ENDROOT
BRANCH   1   7
HETATM    7  O   UNL     1      62.737   7.326   4.259  1.00  0.00    -0.255 OA
BRANCH   7   8
HETATM    8  C   UNL     1      61.919   6.627   5.135  1.00  0.00     0.530 C 
HETATM    9  F   UNL     1      62.102   5.258   5.060  1.00  0.00    -0.144 F 
HETATM   10  F   UNL     1      60.604   6.891   4.806  1.00  0.00    -0.144 F 
HETATM   11  F   UNL     1      62.150   7.055   6.427  1.00  0.00    -0.144 F 
ENDBRANCH   7   8
ENDBRANCH   1   7
BRANCH   2  12
HETATM   12  N   UNL     1      61.543  12.207   1.810  1.00  0.00    -0.399 N 
HETATM   13  H   UNL     1      60.679  12.633   2.016  1.00  0.00     0.156 HD
HETATM   14  H   UNL     1      62.169  12.639   1.187  1.00  0.00     0.156 HD
ENDBRANCH   2  12
TORSDOF 3
ENDMDL
MODEL 6
REMARK VINA RESULT:      -4.1      3.651      4.362
REMARK  3 active torsions:
REMARK  status: ('A' for Active; 'I' for Inactive)
REMARK    1  A    between atoms: C_1  and  O_2 
REMARK    2  A    between atoms: O_2  and  C_6 
REMARK    3  A    between atoms: C_7  and  N_8 
ROOT
HETATM    1  C   UNL     1      62.501   8.724   3.328  1.00  0.00     0.078 A 
HETATM    2  C   UNL     1      63.296  10.570   5.301  1.00  0.00     0.025 A 
HETATM    3  C   UNL     1      63.534   8.409   4.222  1.00  0.00     0.039 A 
HETATM    4  C   UNL     1      61.896   9.996   3.404  1.00  0.00     0.039 A 
HETATM    5  C   UNL     1      63.926   9.321   5.206  1.00  0.00     0.031 A 
HETATM    6  C   UNL     1      62.292  10.907   4.386  1.00  0.00     0.031 A 
ENDROOT
BRANCH   1   7
HETATM    7  O   UNL     1      62.133   7.783   2.420  1.00  0.00    -0.255 OA
BRANCH   7   8
HETATM    8  C   UNL     1      61.149   6.812   2.538  1.00  0.00     0.530 C 
HETATM    9  F   UNL     1      61.653   5.526   2.457  1.00  0.00    -0.144 F 
HETATM   10  F   UNL     1      60.251   6.974   1.500  1.00  0.00    -0.144 F 
HETATM   11  F   UNL     1      60.481   6.973   3.735  1.00  0.00    -0.144 F 
ENDBRANCH   7   8
ENDBRANCH   1   7
BRANCH   2  12
HETATM   12  N   UNL     1      63.668  11.483   6.318  1.00  0.00    -0.399 N 
HETATM   13  H   UNL     1      62.994  12.084   6.711  1.00  0.00     0.156 HD
HETATM   14  H   UNL     1      64.600  11.518   6.631  1.00  0.00     0.156 HD
ENDBRANCH   2  12
TORSDOF 3
ENDMDL
MODEL 7
REMARK VINA RESULT:      -4.1      3.756      5.346
REMARK  3 active torsions:
REMARK  status: ('A' for Active; 'I' for Inactive)
REMARK    1  A    between atoms: C_1  and  O_2 
REMARK    2  A    between atoms: O_2  and  C_6 
REMARK    3  A    between atoms: C_7  and  N_8 
ROOT
HETATM    1  C   UNL     1      66.021   7.940   5.506  1.00  0.00     0.078 A 
HETATM    2  C   UNL     1      67.410   5.550   6.049  1.00  0.00     0.025 A 
HETATM    3  C   UNL     1      66.170   6.962   4.513  1.00  0.00     0.039 A 
HETATM    4  C   UNL     1      66.614   7.727   6.768  1.00  0.00     0.039 A 
HETATM    5  C   UNL     1      66.853   5.773   4.781  1.00  0.00     0.031 A 
HETATM    6  C   UNL     1      67.300   6.539   7.034  1.00  0.00     0.031 A 
ENDROOT
BRANCH   1   7
HETATM    7  O   UNL     1      65.311   9.057   5.201  1.00  0.00    -0.255 OA
BRANCH   7   8
HETATM    8  C   UNL     1      63.934   9.200   5.098  1.00  0.00     0.530 C 
HETATM    9  F   UNL     1      63.242   8.273   5.856  1.00  0.00    -0.144 F 
HETATM   10  F   UNL     1      63.575   9.012   3.778  1.00  0.00    -0.144 F 
HETATM   11  F   UNL     1      63.571  10.475   5.482  1.00  0.00    -0.144 F 
ENDBRANCH   7   8
ENDBRANCH   1   7
BRANCH   2  12
HETATM   12  N   UNL     1      68.074   4.332   6.335  1.00  0.00    -0.399 N 
HETATM   13  H   UNL     1      69.059   4.298   6.341  1.00  0.00     0.156 HD
HETATM   14  H   UNL     1      67.552   3.520   6.526  1.00  0.00     0.156 HD
ENDBRANCH   2  12
TORSDOF 3
ENDMDL
MODEL 8
REMARK VINA RESULT:      -4.0      3.650      5.131
REMARK  3 active torsions:
REMARK  status: ('A' for Active; 'I' for Inactive)
REMARK    1  A    between atoms: C_1  and  O_2 
REMARK    2  A    between atoms: O_2  and  C_6 
REMARK    3  A    between atoms: C_7  and  N_8 
ROOT
HETATM    1  C   UNL     1      64.850   7.569   5.124  1.00  0.00     0.078 A 
HETATM    2  C   UNL     1      66.622   7.131   7.270  1.00  0.00     0.025 A 
HETATM    3  C   UNL     1      64.434   6.854   6.256  1.00  0.00     0.039 A 
HETATM    4  C   UNL     1      66.182   8.028   5.059  1.00  0.00     0.039 A 
HETATM    5  C   UNL     1      65.308   6.641   7.325  1.00  0.00     0.031 A 
HETATM    6  C   UNL     1      67.056   7.810   6.126  1.00  0.00     0.031 A 
ENDROOT
BRANCH   1   7
HETATM    7  O   UNL     1      63.944   7.783   4.135  1.00  0.00    -0.255 OA
BRANCH   7   8
HETATM    8  C   UNL     1      62.978   8.775   4.053  1.00  0.00     0.530 C 
HETATM    9  F   UNL     1      61.730   8.344   4.467  1.00  0.00    -0.144 F 
HETATM   10  F   UNL     1      62.867   9.167   2.733  1.00  0.00    -0.144 F 
HETATM   11  F   UNL     1      63.366   9.863   4.810  1.00  0.00    -0.144 F 
ENDBRANCH   7   8
ENDBRANCH   1   7
BRANCH   2  12
HETATM   12  N   UNL     1      67.500   6.945   8.365  1.00  0.00    -0.399 N 
HETATM   13  H   UNL     1      67.898   6.059   8.533  1.00  0.00     0.156 HD
HETATM   14  H   UNL     1      67.713   7.700   8.959  1.00  0.00     0.156 HD
ENDBRANCH   2  12
TORSDOF 3
ENDMDL
MODEL 9
REMARK VINA RESULT:      -4.0      3.718      4.783
REMARK  3 active torsions:
REMARK  status: ('A' for Active; 'I' for Inactive)
REMARK    1  A    between atoms: C_1  and  O_2 
REMARK    2  A    between atoms: O_2  and  C_6 
REMARK    3  A    between atoms: C_7  and  N_8 
ROOT
HETATM    1  C   UNL     1      63.851   8.101   4.427  1.00  0.00     0.078 A 
HETATM    2  C   UNL     1      66.333   6.777   4.263  1.00  0.00     0.025 A 
HETATM    3  C   UNL     1      64.019   7.008   3.566  1.00  0.00     0.039 A 
HETATM    4  C   UNL     1      64.956   8.554   5.178  1.00  0.00     0.039 A 
HETATM    5  C   UNL     1      65.246   6.346   3.487  1.00  0.00     0.031 A 
HETATM    6  C   UNL     1      66.184   7.893   5.095  1.00  0.00     0.031 A 
ENDROOT
BRANCH   1   7
HETATM    7  O   UNL     1      62.624   8.679   4.495  1.00  0.00    -0.255 OA
BRANCH   7   8
HETATM    8  C   UNL     1      62.159   9.795   3.813  1.00  0.00     0.530 C 
HETATM    9  F   UNL     1      62.547  10.983   4.405  1.00  0.00    -0.144 F 
HETATM   10  F   UNL     1      60.778   9.760   3.813  1.00  0.00    -0.144 F 
HETATM   11  F   UNL     1      62.607   9.760   2.508  1.00  0.00    -0.144 F 
ENDBRANCH   7   8
ENDBRANCH   1   7
BRANCH   2  12
HETATM   12  N   UNL     1      67.568   6.087   4.210  1.00  0.00    -0.399 N 
HETATM   13  H   UNL     1      68.018   5.948   3.344  1.00  0.00     0.156 HD
HETATM   14  H   UNL     1      67.977   5.746   5.037  1.00  0.00     0.156 HD
ENDBRANCH   2  12
TORSDOF 3
ENDMDL
