MODEL 1
REMARK VINA RESULT:      -6.1      0.000      0.000
REMARK  1 active torsions:
REMARK  status: ('A' for Active; 'I' for Inactive)
REMARK    1  A    between atoms: C_1  and  C_7 
ROOT
HETATM    1  C   UNL     1      64.195   7.308   3.672  1.00  0.00     0.158 C 
HETATM    2  O   UNL     1      65.026   9.112   5.815  1.00  0.00    -0.310 OA
HETATM    3  C   UNL     1      65.450   7.107   4.490  1.00  0.00    -0.005 A 
HETATM    4  C   UNL     1      63.517   8.627   3.959  1.00  0.00    -0.005 A 
HETATM    5  C   UNL     1      65.774   8.003   5.510  1.00  0.00     0.083 A 
HETATM    6  C   UNL     1      63.958   9.429   5.013  1.00  0.00     0.083 A 
HETATM    7  C   UNL     1      66.296   6.008   4.256  1.00  0.00     0.011 A 
HETATM    8  C   UNL     1      62.424   9.059   3.188  1.00  0.00     0.011 A 
HETATM    9  C   UNL     1      63.308  10.629   5.309  1.00  0.00     0.038 A 
HETATM   10  C   UNL     1      66.912   7.800   6.295  1.00  0.00     0.038 A 
HETATM   11  C   UNL     1      61.775  10.259   3.486  1.00  0.00     0.001 A 
HETATM   12  C   UNL     1      67.429   5.806   5.045  1.00  0.00     0.001 A 
HETATM   13  C   UNL     1      62.215  11.042   4.550  1.00  0.00     0.003 A 
HETATM   14  C   UNL     1      67.737   6.700   6.067  1.00  0.00     0.003 A 
ENDROOT
BRANCH   1  15
HETATM   15  C   UNL     1      63.223   6.151   3.892  1.00  0.00     0.186 C 
HETATM   16  O   UNL     1      62.807   5.353   3.069  1.00  0.00    -0.647 OA
HETATM   17  O   UNL     1      62.812   6.053   5.177  1.00  0.00    -0.647 OA
ENDBRANCH   1  15
TORSDOF 1
ENDMDL
MODEL 2
REMARK VINA RESULT:      -5.9      2.078      5.262
REMARK  1 active torsions:
REMARK  status: ('A' for Active; 'I' for Inactive)
REMARK    1  A    between atoms: C_1  and  C_7 
ROOT
HETATM    1  C   UNL     1      63.484   8.026   4.619  1.00  0.00     0.158 C 
HETATM    2  O   UNL     1      62.821   7.752   1.786  1.00  0.00    -0.310 OA
HETATM    3  C   UNL     1      62.857   9.131   3.800  1.00  0.00    -0.005 A 
HETATM    4  C   UNL     1      63.891   6.837   3.780  1.00  0.00    -0.005 A 
HETATM    5  C   UNL     1      62.554   8.921   2.453  1.00  0.00     0.083 A 
HETATM    6  C   UNL     1      63.521   6.767   2.435  1.00  0.00     0.083 A 
HETATM    7  C   UNL     1      62.550  10.374   4.380  1.00  0.00     0.011 A 
HETATM    8  C   UNL     1      64.626   5.777   4.340  1.00  0.00     0.011 A 
HETATM    9  C   UNL     1      63.859   5.651   1.666  1.00  0.00     0.038 A 
HETATM   10  C   UNL     1      61.939   9.926   1.702  1.00  0.00     0.038 A 
HETATM   11  C   UNL     1      64.961   4.662   3.569  1.00  0.00     0.001 A 
HETATM   12  C   UNL     1      61.932  11.374   3.628  1.00  0.00     0.001 A 
HETATM   13  C   UNL     1      64.574   4.597   2.233  1.00  0.00     0.003 A 
HETATM   14  C   UNL     1      61.624  11.150   2.289  1.00  0.00     0.003 A 
ENDROOT
BRANCH   1  15
HETATM   15  C   UNL     1      62.540   7.590   5.737  1.00  0.00     0.186 C 
HETATM   16  O   UNL     1      62.676   7.747   6.939  1.00  0.00    -0.647 OA
HETATM   17  O   UNL     1      61.436   6.960   5.272  1.00  0.00    -0.647 OA
ENDBRANCH   1  15
TORSDOF 1
ENDMDL
MODEL 3
REMARK VINA RESULT:      -5.7      1.415      5.157
REMARK  1 active torsions:
REMARK  status: ('A' for Active; 'I' for Inactive)
REMARK    1  A    between atoms: C_1  and  C_7 
ROOT
HETATM    1  C   UNL     1      65.296   7.955   4.988  1.00  0.00     0.158 C 
HETATM    2  O   UNL     1      63.506   6.983   2.892  1.00  0.00    -0.310 OA
HETATM    3  C   UNL     1      64.057   8.697   4.540  1.00  0.00    -0.005 A 
HETATM    4  C   UNL     1      65.604   6.758   4.119  1.00  0.00    -0.005 A 
HETATM    5  C   UNL     1      63.240   8.162   3.542  1.00  0.00     0.083 A 
HETATM    6  C   UNL     1      64.690   6.340   3.150  1.00  0.00     0.083 A 
HETATM    7  C   UNL     1      63.695   9.920   5.132  1.00  0.00     0.011 A 
HETATM    8  C   UNL     1      66.797   6.034   4.286  1.00  0.00     0.011 A 
HETATM    9  C   UNL     1      64.951   5.208   2.374  1.00  0.00     0.038 A 
HETATM   10  C   UNL     1      62.074   8.824   3.152  1.00  0.00     0.038 A 
HETATM   11  C   UNL     1      67.055   4.903   3.509  1.00  0.00     0.001 A 
HETATM   12  C   UNL     1      62.527  10.577   4.743  1.00  0.00     0.001 A 
HETATM   13  C   UNL     1      66.129   4.487   2.556  1.00  0.00     0.003 A 
HETATM   14  C   UNL     1      61.713  10.028   3.755  1.00  0.00     0.003 A 
ENDROOT
BRANCH   1  15
HETATM   15  C   UNL     1      65.167   7.534   6.449  1.00  0.00     0.186 C 
HETATM   16  O   UNL     1      64.217   6.997   6.995  1.00  0.00    -0.647 OA
HETATM   17  O   UNL     1      66.274   7.817   7.173  1.00  0.00    -0.647 OA
ENDBRANCH   1  15
TORSDOF 1
ENDMDL
MODEL 4
REMARK VINA RESULT:      -5.5      1.459      5.132
REMARK  1 active torsions:
REMARK  status: ('A' for Active; 'I' for Inactive)
REMARK    1  A    between atoms: C_1  and  C_7 
ROOT
HETATM    1  C   UNL     1      64.090   8.730   4.535  1.00  0.00     0.158 C 
HETATM    2  O   UNL     1      64.419   6.296   2.951  1.00  0.00    -0.310 OA
HETATM    3  C   UNL     1      63.234   8.396   3.334  1.00  0.00    -0.005 A 
HETATM    4  C   UNL     1      65.239   7.767   4.719  1.00  0.00    -0.005 A 
HETATM    5  C   UNL     1      63.440   7.205   2.636  1.00  0.00     0.083 A 
HETATM    6  C   UNL     1      65.319   6.613   3.937  1.00  0.00     0.083 A 
HETATM    7  C   UNL     1      62.208   9.261   2.916  1.00  0.00     0.011 A 
HETATM    8  C   UNL     1      66.229   8.002   5.689  1.00  0.00     0.011 A 
HETATM    9  C   UNL     1      66.357   5.698   4.132  1.00  0.00     0.038 A 
HETATM   10  C   UNL     1      62.627   6.872   1.549  1.00  0.00     0.038 A 
HETATM   11  C   UNL     1      67.264   7.085   5.882  1.00  0.00     0.001 A 
HETATM   12  C   UNL     1      61.395   8.924   1.833  1.00  0.00     0.001 A 
HETATM   13  C   UNL     1      67.325   5.930   5.106  1.00  0.00     0.003 A 
HETATM   14  C   UNL     1      61.602   7.728   1.150  1.00  0.00     0.003 A 
ENDROOT
BRANCH   1  15
HETATM   15  C   UNL     1      63.236   8.787   5.799  1.00  0.00     0.186 C 
HETATM   16  O   UNL     1      62.833   7.856   6.476  1.00  0.00    -0.647 OA
HETATM   17  O   UNL     1      62.924  10.053   6.161  1.00  0.00    -0.647 OA
ENDBRANCH   1  15
TORSDOF 1
ENDMDL
MODEL 5
REMARK VINA RESULT:      -5.4      2.019      2.327
REMARK  1 active torsions:
REMARK  status: ('A' for Active; 'I' for Inactive)
REMARK    1  A    between atoms: C_1  and  C_7 
ROOT
HETATM    1  C   UNL     1      62.994   7.363   2.761  1.00  0.00     0.158 C 
HETATM    2  O   UNL     1      63.033   8.810   5.300  1.00  0.00    -0.310 OA
HETATM    3  C   UNL     1      63.560   6.788   4.039  1.00  0.00    -0.005 A 
HETATM    4  C   UNL     1      62.618   8.820   2.894  1.00  0.00    -0.005 A 
HETATM    5  C   UNL     1      63.528   7.534   5.219  1.00  0.00     0.083 A 
HETATM    6  C   UNL     1      62.642   9.440   4.145  1.00  0.00     0.083 A 
HETATM    7  C   UNL     1      64.102   5.491   4.069  1.00  0.00     0.011 A 
HETATM    8  C   UNL     1      62.218   9.567   1.772  1.00  0.00     0.011 A 
HETATM    9  C   UNL     1      62.254  10.775   4.280  1.00  0.00     0.038 A 
HETATM   10  C   UNL     1      64.014   6.991   6.412  1.00  0.00     0.038 A 
HETATM   11  C   UNL     1      61.830  10.902   1.910  1.00  0.00     0.001 A 
HETATM   12  C   UNL     1      64.583   4.951   5.262  1.00  0.00     0.001 A 
HETATM   13  C   UNL     1      61.844  11.505   3.166  1.00  0.00     0.003 A 
HETATM   14  C   UNL     1      64.536   5.700   6.436  1.00  0.00     0.003 A 
ENDROOT
BRANCH   1  15
HETATM   15  C   UNL     1      61.794   6.544   2.292  1.00  0.00     0.186 C 
HETATM   16  O   UNL     1      60.746   6.341   2.883  1.00  0.00    -0.647 OA
HETATM   17  O   UNL     1      61.978   6.007   1.063  1.00  0.00    -0.647 OA
ENDBRANCH   1  15
TORSDOF 1
ENDMDL
MODEL 6
REMARK VINA RESULT:      -5.4      2.847      5.786
REMARK  1 active torsions:
REMARK  status: ('A' for Active; 'I' for Inactive)
REMARK    1  A    between atoms: C_1  and  C_7 
ROOT
HETATM    1  C   UNL     1      62.342   8.992   2.708  1.00  0.00     0.158 C 
HETATM    2  O   UNL     1      61.091   6.687   3.998  1.00  0.00    -0.310 OA
HETATM    3  C   UNL     1      61.151   8.260   2.132  1.00  0.00    -0.005 A 
HETATM    4  C   UNL     1      62.922   8.300   3.919  1.00  0.00    -0.005 A 
HETATM    5  C   UNL     1      60.597   7.176   2.815  1.00  0.00     0.083 A 
HETATM    6  C   UNL     1      62.257   7.215   4.493  1.00  0.00     0.083 A 
HETATM    7  C   UNL     1      60.569   8.670   0.920  1.00  0.00     0.011 A 
HETATM    8  C   UNL     1      64.122   8.747   4.499  1.00  0.00     0.011 A 
HETATM    9  C   UNL     1      62.767   6.598   5.638  1.00  0.00     0.038 A 
HETATM   10  C   UNL     1      59.472   6.521   2.307  1.00  0.00     0.038 A 
HETATM   11  C   UNL     1      64.629   8.129   5.644  1.00  0.00     0.001 A 
HETATM   12  C   UNL     1      59.444   8.016   0.417  1.00  0.00     0.001 A 
HETATM   13  C   UNL     1      63.949   7.057   6.217  1.00  0.00     0.003 A 
HETATM   14  C   UNL     1      58.892   6.943   1.112  1.00  0.00     0.003 A 
ENDROOT
BRANCH   1  15
HETATM   15  C   UNL     1      61.971  10.434   3.045  1.00  0.00     0.186 C 
HETATM   16  O   UNL     1      61.504  10.865   4.087  1.00  0.00    -0.647 OA
HETATM   17  O   UNL     1      62.215  11.288   2.025  1.00  0.00    -0.647 OA
ENDBRANCH   1  15
TORSDOF 1
ENDMDL
MODEL 7
REMARK VINA RESULT:      -5.2      1.784      3.781
REMARK  1 active torsions:
REMARK  status: ('A' for Active; 'I' for Inactive)
REMARK    1  A    between atoms: C_1  and  C_7 
ROOT
HETATM    1  C   UNL     1      65.616   7.036   5.958  1.00  0.00     0.158 C 
HETATM    2  O   UNL     1      65.523   5.259   3.639  1.00  0.00    -0.310 OA
HETATM    3  C   UNL     1      66.367   5.727   5.882  1.00  0.00    -0.005 A 
HETATM    4  C   UNL     1      64.679   7.240   4.790  1.00  0.00    -0.005 A 
HETATM    5  C   UNL     1      66.287   4.937   4.733  1.00  0.00     0.083 A 
HETATM    6  C   UNL     1      64.705   6.359   3.707  1.00  0.00     0.083 A 
HETATM    7  C   UNL     1      67.173   5.294   6.949  1.00  0.00     0.011 A 
HETATM    8  C   UNL     1      63.785   8.325   4.763  1.00  0.00     0.011 A 
HETATM    9  C   UNL     1      63.871   6.566   2.606  1.00  0.00     0.038 A 
HETATM   10  C   UNL     1      67.010   3.746   4.642  1.00  0.00     0.038 A 
HETATM   11  C   UNL     1      62.953   8.530   3.661  1.00  0.00     0.001 A 
HETATM   12  C   UNL     1      67.897   4.105   6.854  1.00  0.00     0.001 A 
HETATM   13  C   UNL     1      62.999   7.653   2.580  1.00  0.00     0.003 A 
HETATM   14  C   UNL     1      67.819   3.331   5.699  1.00  0.00     0.003 A 
ENDROOT
BRANCH   1  15
HETATM   15  C   UNL     1      66.591   8.206   6.067  1.00  0.00     0.186 C 
HETATM   16  O   UNL     1      66.691   9.018   6.972  1.00  0.00    -0.647 OA
HETATM   17  O   UNL     1      67.419   8.296   5.001  1.00  0.00    -0.647 OA
ENDBRANCH   1  15
TORSDOF 1
ENDMDL
MODEL 8
REMARK VINA RESULT:      -5.1      2.329      5.074
REMARK  1 active torsions:
REMARK  status: ('A' for Active; 'I' for Inactive)
REMARK    1  A    between atoms: C_1  and  C_7 
ROOT
HETATM    1  C   UNL     1      63.210   8.091   4.597  1.00  0.00     0.158 C 
HETATM    2  O   UNL     1      63.121   6.206   6.829  1.00  0.00    -0.310 OA
HETATM    3  C   UNL     1      61.997   7.254   4.933  1.00  0.00    -0.005 A 
HETATM    4  C   UNL     1      64.420   7.720   5.423  1.00  0.00    -0.005 A 
HETATM    5  C   UNL     1      62.023   6.386   6.026  1.00  0.00     0.083 A 
HETATM    6  C   UNL     1      64.297   6.826   6.487  1.00  0.00     0.083 A 
HETATM    7  C   UNL     1      60.820   7.351   4.169  1.00  0.00     0.011 A 
HETATM    8  C   UNL     1      65.679   8.283   5.149  1.00  0.00     0.011 A 
HETATM    9  C   UNL     1      65.404   6.513   7.280  1.00  0.00     0.038 A 
HETATM   10  C   UNL     1      60.892   5.639   6.364  1.00  0.00     0.038 A 
HETATM   11  C   UNL     1      66.784   7.969   5.943  1.00  0.00     0.001 A 
HETATM   12  C   UNL     1      59.690   6.607   4.512  1.00  0.00     0.001 A 
HETATM   13  C   UNL     1      66.645   7.087   7.012  1.00  0.00     0.003 A 
HETATM   14  C   UNL     1      59.724   5.752   5.611  1.00  0.00     0.003 A 
ENDROOT
BRANCH   1  15
HETATM   15  C   UNL     1      62.894   9.576   4.753  1.00  0.00     0.186 C 
HETATM   16  O   UNL     1      62.942  10.252   5.768  1.00  0.00    -0.647 OA
HETATM   17  O   UNL     1      62.524  10.156   3.588  1.00  0.00    -0.647 OA
ENDBRANCH   1  15
TORSDOF 1
ENDMDL
MODEL 9
REMARK VINA RESULT:      -5.0      1.915      5.072
REMARK  1 active torsions:
REMARK  status: ('A' for Active; 'I' for Inactive)
REMARK    1  A    between atoms: C_1  and  C_7 
ROOT
HETATM    1  C   UNL     1      64.328   7.485   5.240  1.00  0.00     0.158 C 
HETATM    2  O   UNL     1      65.494   5.377   3.585  1.00  0.00    -0.310 OA
HETATM    3  C   UNL     1      63.874   7.186   3.829  1.00  0.00    -0.005 A 
HETATM    4  C   UNL     1      65.559   6.702   5.634  1.00  0.00    -0.005 A 
HETATM    5  C   UNL     1      64.469   6.152   3.105  1.00  0.00     0.083 A 
HETATM    6  C   UNL     1      66.048   5.695   4.800  1.00  0.00     0.083 A 
HETATM    7  C   UNL     1      62.836   7.925   3.234  1.00  0.00     0.011 A 
HETATM    8  C   UNL     1      66.216   6.958   6.850  1.00  0.00     0.011 A 
HETATM    9  C   UNL     1      67.160   4.941   5.180  1.00  0.00     0.038 A 
HETATM   10  C   UNL     1      64.026   5.846   1.815  1.00  0.00     0.038 A 
HETATM   11  C   UNL     1      67.328   6.201   7.228  1.00  0.00     0.001 A 
HETATM   12  C   UNL     1      62.394   7.615   1.947  1.00  0.00     0.001 A 
HETATM   13  C   UNL     1      67.797   5.189   6.394  1.00  0.00     0.003 A 
HETATM   14  C   UNL     1      62.987   6.573   1.238  1.00  0.00     0.003 A 
ENDROOT
BRANCH   1  15
HETATM   15  C   UNL     1      63.195   7.229   6.231  1.00  0.00     0.186 C 
HETATM   16  O   UNL     1      62.687   8.018   7.011  1.00  0.00    -0.647 OA
HETATM   17  O   UNL     1      62.741   5.955   6.187  1.00  0.00    -0.647 OA
ENDBRANCH   1  15
TORSDOF 1
ENDMDL
