MODEL 1
REMARK VINA RESULT:      -6.4      0.000      0.000
REMARK  1 active torsions:
REMARK  status: ('A' for Active; 'I' for Inactive)
REMARK    1  A    between atoms: C_1  and  C_8 
REMARK       I    between atoms: N_4  and  C_6 
ROOT
HETATM    1  C   UNL     1      63.461   7.646   3.795  1.00  0.00    -0.026 A 
HETATM    2  C   UNL     1      63.358   6.984   2.588  1.00  0.00     0.096 A 
HETATM    3  N   UNL     1      62.743   7.821   1.691  1.00  0.00    -0.365 N 
HETATM    4  C   UNL     1      62.868   8.938   3.608  1.00  0.00    -0.001 A 
HETATM    5  C   UNL     1      62.457   9.029   2.283  1.00  0.00     0.042 A 
HETATM    6  C   UNL     1      62.672  10.042   4.462  1.00  0.00     0.014 A 
HETATM    7  C   UNL     1      61.874  10.191   1.760  1.00  0.00     0.030 A 
HETATM    8  C   UNL     1      62.095  11.209   3.958  1.00  0.00     0.001 A 
HETATM    9  C   UNL     1      61.710  11.282   2.624  1.00  0.00     0.002 A 
HETATM   10  H   UNL     1      62.535   7.588   0.757  1.00  0.00     0.165 HD
ENDROOT
BRANCH   1  11
HETATM   11  C   UNL     1      64.073   7.208   5.094  1.00  0.00     0.024 C 
HETATM   12  C   UNL     1      63.871   5.742   5.481  1.00  0.00     0.029 C 
HETATM   13  C   UNL     1      64.407   5.530   6.898  1.00  0.00     0.126 C 
HETATM   14  N   UNL     1      65.801   5.975   7.026  1.00  0.00    -0.352 N 
HETATM   15  C   UNL     1      66.087   7.329   6.555  1.00  0.00     0.126 C 
HETATM   16  C   UNL     1      66.668   5.226   7.807  1.00  0.00     0.215 C 
HETATM   17  C   UNL     1      65.574   7.528   5.136  1.00  0.00     0.029 C 
HETATM   18  O   UNL     1      66.349   4.153   8.317  1.00  0.00    -0.274 OA
HETATM   19  C   UNL     1      68.059   5.773   8.014  1.00  0.00     0.117 C 
ENDBRANCH   1  11
TORSDOF 1
ENDMDL
MODEL 2
REMARK VINA RESULT:      -6.2      2.688      6.680
REMARK  1 active torsions:
REMARK  status: ('A' for Active; 'I' for Inactive)
REMARK    1  A    between atoms: C_1  and  C_8 
REMARK       I    between atoms: N_4  and  C_6 
ROOT
HETATM    1  C   UNL     1      65.776   6.388   5.127  1.00  0.00    -0.026 A 
HETATM    2  C   UNL     1      66.563   5.635   4.278  1.00  0.00     0.096 A 
HETATM    3  N   UNL     1      67.522   5.004   5.029  1.00  0.00    -0.365 N 
HETATM    4  C   UNL     1      66.299   6.201   6.447  1.00  0.00    -0.001 A 
HETATM    5  C   UNL     1      67.366   5.313   6.361  1.00  0.00     0.042 A 
HETATM    6  C   UNL     1      65.930   6.705   7.712  1.00  0.00     0.014 A 
HETATM    7  C   UNL     1      68.074   4.883   7.491  1.00  0.00     0.030 A 
HETATM    8  C   UNL     1      66.622   6.286   8.849  1.00  0.00     0.001 A 
HETATM    9  C   UNL     1      67.673   5.381   8.738  1.00  0.00     0.002 A 
HETATM   10  H   UNL     1      68.223   4.415   4.667  1.00  0.00     0.165 HD
ENDROOT
BRANCH   1  11
HETATM   11  C   UNL     1      64.575   7.241   4.835  1.00  0.00     0.024 C 
HETATM   12  C   UNL     1      64.657   8.704   5.275  1.00  0.00     0.029 C 
HETATM   13  C   UNL     1      63.292   9.359   5.056  1.00  0.00     0.126 C 
HETATM   14  N   UNL     1      62.825   9.197   3.673  1.00  0.00    -0.352 N 
HETATM   15  C   UNL     1      62.842   7.832   3.147  1.00  0.00     0.126 C 
HETATM   16  C   UNL     1      62.163  10.254   3.067  1.00  0.00     0.215 C 
HETATM   17  C   UNL     1      64.209   7.192   3.345  1.00  0.00     0.029 C 
HETATM   18  O   UNL     1      62.035  11.355   3.601  1.00  0.00    -0.274 OA
HETATM   19  C   UNL     1      61.593  10.014   1.691  1.00  0.00     0.117 C 
ENDBRANCH   1  11
TORSDOF 1
ENDMDL
MODEL 3
REMARK VINA RESULT:      -6.1      1.296      2.270
REMARK  1 active torsions:
REMARK  status: ('A' for Active; 'I' for Inactive)
REMARK    1  A    between atoms: C_1  and  C_8 
REMARK       I    between atoms: N_4  and  C_6 
ROOT
HETATM    1  C   UNL     1      62.972   9.111   4.303  1.00  0.00    -0.026 A 
HETATM    2  C   UNL     1      62.330  10.332   4.369  1.00  0.00     0.096 A 
HETATM    3  N   UNL     1      61.700  10.551   3.170  1.00  0.00    -0.365 N 
HETATM    4  C   UNL     1      62.718   8.584   2.995  1.00  0.00    -0.001 A 
HETATM    5  C   UNL     1      61.900   9.486   2.323  1.00  0.00     0.042 A 
HETATM    6  C   UNL     1      63.104   7.395   2.342  1.00  0.00     0.014 A 
HETATM    7  C   UNL     1      61.428   9.244   1.027  1.00  0.00     0.030 A 
HETATM    8  C   UNL     1      62.642   7.136   1.051  1.00  0.00     0.001 A 
HETATM    9  C   UNL     1      61.808   8.045   0.409  1.00  0.00     0.002 A 
HETATM   10  H   UNL     1      61.180  11.357   2.948  1.00  0.00     0.165 HD
ENDROOT
BRANCH   1  11
HETATM   11  C   UNL     1      63.776   8.380   5.338  1.00  0.00     0.024 C 
HETATM   12  C   UNL     1      63.362   6.936   5.626  1.00  0.00     0.029 C 
HETATM   13  C   UNL     1      64.173   6.421   6.818  1.00  0.00     0.126 C 
HETATM   14  N   UNL     1      65.617   6.577   6.602  1.00  0.00    -0.352 N 
HETATM   15  C   UNL     1      66.065   7.910   6.200  1.00  0.00     0.126 C 
HETATM   16  C   UNL     1      66.467   5.573   7.043  1.00  0.00     0.215 C 
HETATM   17  C   UNL     1      65.273   8.408   5.000  1.00  0.00     0.029 C 
HETATM   18  O   UNL     1      66.058   4.514   7.518  1.00  0.00    -0.274 OA
HETATM   19  C   UNL     1      67.950   5.817   6.915  1.00  0.00     0.117 C 
ENDBRANCH   1  11
TORSDOF 1
ENDMDL
MODEL 4
REMARK VINA RESULT:      -5.8      2.702      6.877
REMARK  1 active torsions:
REMARK  status: ('A' for Active; 'I' for Inactive)
REMARK    1  A    between atoms: C_1  and  C_8 
REMARK       I    between atoms: N_4  and  C_6 
ROOT
HETATM    1  C   UNL     1      65.469   7.401   6.070  1.00  0.00    -0.026 A 
HETATM    2  C   UNL     1      66.546   8.130   6.532  1.00  0.00     0.096 A 
HETATM    3  N   UNL     1      67.360   7.288   7.247  1.00  0.00    -0.365 N 
HETATM    4  C   UNL     1      65.648   6.059   6.542  1.00  0.00    -0.001 A 
HETATM    5  C   UNL     1      66.846   6.012   7.245  1.00  0.00     0.042 A 
HETATM    6  C   UNL     1      64.890   4.878   6.403  1.00  0.00     0.014 A 
HETATM    7  C   UNL     1      67.339   4.825   7.803  1.00  0.00     0.030 A 
HETATM    8  C   UNL     1      65.366   3.686   6.949  1.00  0.00     0.001 A 
HETATM    9  C   UNL     1      66.577   3.661   7.632  1.00  0.00     0.002 A 
HETATM   10  H   UNL     1      68.192   7.559   7.697  1.00  0.00     0.165 HD
ENDROOT
BRANCH   1  11
HETATM   11  C   UNL     1      64.307   7.820   5.217  1.00  0.00     0.024 C 
HETATM   12  C   UNL     1      64.032   9.322   5.132  1.00  0.00     0.029 C 
HETATM   13  C   UNL     1      62.722   9.539   4.372  1.00  0.00     0.126 C 
HETATM   14  N   UNL     1      62.737   8.879   3.060  1.00  0.00    -0.352 N 
HETATM   15  C   UNL     1      63.116   7.467   3.058  1.00  0.00     0.126 C 
HETATM   16  C   UNL     1      62.147   9.525   1.984  1.00  0.00     0.215 C 
HETATM   17  C   UNL     1      64.432   7.258   3.794  1.00  0.00     0.029 C 
HETATM   18  O   UNL     1      61.700  10.669   2.057  1.00  0.00    -0.274 OA
HETATM   19  C   UNL     1      62.074   8.770   0.680  1.00  0.00     0.117 C 
ENDBRANCH   1  11
TORSDOF 1
ENDMDL
MODEL 5
REMARK VINA RESULT:      -5.8      1.901      2.941
REMARK  1 active torsions:
REMARK  status: ('A' for Active; 'I' for Inactive)
REMARK    1  A    between atoms: C_1  and  C_8 
REMARK       I    between atoms: N_4  and  C_6 
ROOT
HETATM    1  C   UNL     1      63.163   8.957   4.967  1.00  0.00    -0.026 A 
HETATM    2  C   UNL     1      63.168  10.015   5.855  1.00  0.00     0.096 A 
HETATM    3  N   UNL     1      62.709  11.128   5.198  1.00  0.00    -0.365 N 
HETATM    4  C   UNL     1      62.685   9.471   3.718  1.00  0.00    -0.001 A 
HETATM    5  C   UNL     1      62.382  10.816   3.898  1.00  0.00     0.042 A 
HETATM    6  C   UNL     1      62.466   8.885   2.453  1.00  0.00     0.014 A 
HETATM    7  C   UNL     1      61.845  11.605   2.873  1.00  0.00     0.030 A 
HETATM    8  C   UNL     1      61.930   9.655   1.421  1.00  0.00     0.001 A 
HETATM    9  C   UNL     1      61.617  10.994   1.633  1.00  0.00     0.002 A 
HETATM   10  H   UNL     1      62.626  12.023   5.600  1.00  0.00     0.165 HD
ENDROOT
BRANCH   1  11
HETATM   11  C   UNL     1      63.535   7.517   5.171  1.00  0.00     0.024 C 
HETATM   12  C   UNL     1      64.761   7.248   6.046  1.00  0.00     0.029 C 
HETATM   13  C   UNL     1      65.083   5.752   5.993  1.00  0.00     0.126 C 
HETATM   14  N   UNL     1      63.921   4.931   6.357  1.00  0.00    -0.352 N 
HETATM   15  C   UNL     1      62.679   5.226   5.642  1.00  0.00     0.126 C 
HETATM   16  C   UNL     1      64.126   3.791   7.119  1.00  0.00     0.215 C 
HETATM   17  C   UNL     1      62.349   6.709   5.718  1.00  0.00     0.029 C 
HETATM   18  O   UNL     1      65.223   3.490   7.587  1.00  0.00    -0.274 OA
HETATM   19  C   UNL     1      62.931   2.907   7.375  1.00  0.00     0.117 C 
ENDBRANCH   1  11
TORSDOF 1
ENDMDL
MODEL 6
REMARK VINA RESULT:      -5.3      2.733      3.405
REMARK  1 active torsions:
REMARK  status: ('A' for Active; 'I' for Inactive)
REMARK    1  A    between atoms: C_1  and  C_8 
REMARK       I    between atoms: N_4  and  C_6 
ROOT
HETATM    1  C   UNL     1      61.343   7.024   4.138  1.00  0.00    -0.026 A 
HETATM    2  C   UNL     1      60.312   6.450   4.856  1.00  0.00     0.096 A 
HETATM    3  N   UNL     1      59.172   6.518   4.097  1.00  0.00    -0.365 N 
HETATM    4  C   UNL     1      60.783   7.463   2.894  1.00  0.00    -0.001 A 
HETATM    5  C   UNL     1      59.439   7.109   2.884  1.00  0.00     0.042 A 
HETATM    6  C   UNL     1      61.327   8.115   1.767  1.00  0.00     0.014 A 
HETATM    7  C   UNL     1      58.609   7.357   1.782  1.00  0.00     0.030 A 
HETATM    8  C   UNL     1      60.516   8.369   0.660  1.00  0.00     0.001 A 
HETATM    9  C   UNL     1      59.179   7.986   0.668  1.00  0.00     0.002 A 
HETATM   10  H   UNL     1      58.287   6.191   4.381  1.00  0.00     0.165 HD
ENDROOT
BRANCH   1  11
HETATM   11  C   UNL     1      62.795   7.184   4.483  1.00  0.00     0.024 C 
HETATM   12  C   UNL     1      63.247   8.585   4.897  1.00  0.00     0.029 C 
HETATM   13  C   UNL     1      64.771   8.589   5.037  1.00  0.00     0.126 C 
HETATM   14  N   UNL     1      65.236   7.538   5.951  1.00  0.00    -0.352 N 
HETATM   15  C   UNL     1      64.737   6.190   5.685  1.00  0.00     0.126 C 
HETATM   16  C   UNL     1      66.293   7.820   6.805  1.00  0.00     0.215 C 
HETATM   17  C   UNL     1      63.220   6.186   5.570  1.00  0.00     0.029 C 
HETATM   18  O   UNL     1      66.793   8.941   6.899  1.00  0.00    -0.274 OA
HETATM   19  C   UNL     1      66.823   6.686   7.645  1.00  0.00     0.117 C 
ENDBRANCH   1  11
TORSDOF 1
ENDMDL
MODEL 7
REMARK VINA RESULT:      -5.2      2.402      3.007
REMARK  1 active torsions:
REMARK  status: ('A' for Active; 'I' for Inactive)
REMARK    1  A    between atoms: C_1  and  C_8 
REMARK       I    between atoms: N_4  and  C_6 
ROOT
HETATM    1  C   UNL     1      63.268   8.196   4.535  1.00  0.00    -0.026 A 
HETATM    2  C   UNL     1      63.263   8.993   5.663  1.00  0.00     0.096 A 
HETATM    3  N   UNL     1      62.785  10.230   5.312  1.00  0.00    -0.365 N 
HETATM    4  C   UNL     1      62.777   9.005   3.458  1.00  0.00    -0.001 A 
HETATM    5  C   UNL     1      62.457  10.255   3.977  1.00  0.00     0.042 A 
HETATM    6  C   UNL     1      62.560   8.758   2.087  1.00  0.00     0.014 A 
HETATM    7  C   UNL     1      61.905  11.272   3.187  1.00  0.00     0.030 A 
HETATM    8  C   UNL     1      62.009   9.758   1.285  1.00  0.00     0.001 A 
HETATM    9  C   UNL     1      61.679  10.994   1.833  1.00  0.00     0.002 A 
HETATM   10  H   UNL     1      62.692  10.992   5.929  1.00  0.00     0.165 HD
ENDROOT
BRANCH   1  11
HETATM   11  C   UNL     1      63.661   6.758   4.364  1.00  0.00     0.024 C 
HETATM   12  C   UNL     1      65.022   6.496   3.718  1.00  0.00     0.029 C 
HETATM   13  C   UNL     1      65.167   4.992   3.470  1.00  0.00     0.126 C 
HETATM   14  N   UNL     1      64.950   4.215   4.697  1.00  0.00    -0.352 N 
HETATM   15  C   UNL     1      63.722   4.509   5.433  1.00  0.00     0.126 C 
HETATM   16  C   UNL     1      65.746   3.102   4.928  1.00  0.00     0.215 C 
HETATM   17  C   UNL     1      63.593   6.002   5.699  1.00  0.00     0.029 C 
HETATM   18  O   UNL     1      66.689   2.794   4.200  1.00  0.00    -0.274 OA
HETATM   19  C   UNL     1      65.420   2.258   6.135  1.00  0.00     0.117 C 
ENDBRANCH   1  11
TORSDOF 1
ENDMDL
MODEL 8
REMARK VINA RESULT:      -5.2      3.976      5.082
REMARK  1 active torsions:
REMARK  status: ('A' for Active; 'I' for Inactive)
REMARK    1  A    between atoms: C_1  and  C_8 
REMARK       I    between atoms: N_4  and  C_6 
ROOT
HETATM    1  C   UNL     1      59.891   7.735   2.029  1.00  0.00    -0.026 A 
HETATM    2  C   UNL     1      59.360   7.691   0.755  1.00  0.00     0.096 A 
HETATM    3  N   UNL     1      58.061   7.261   0.847  1.00  0.00    -0.365 N 
HETATM    4  C   UNL     1      58.857   7.301   2.921  1.00  0.00    -0.001 A 
HETATM    5  C   UNL     1      57.721   7.041   2.162  1.00  0.00     0.042 A 
HETATM    6  C   UNL     1      58.798   7.131   4.320  1.00  0.00     0.014 A 
HETATM    7  C   UNL     1      56.511   6.638   2.741  1.00  0.00     0.030 A 
HETATM    8  C   UNL     1      57.600   6.733   4.915  1.00  0.00     0.001 A 
HETATM    9  C   UNL     1      56.473   6.498   4.135  1.00  0.00     0.002 A 
HETATM   10  H   UNL     1      57.457   7.128   0.080  1.00  0.00     0.165 HD
ENDROOT
BRANCH   1  11
HETATM   11  C   UNL     1      61.252   8.161   2.499  1.00  0.00     0.024 C 
HETATM   12  C   UNL     1      61.289   9.193   3.628  1.00  0.00     0.029 C 
HETATM   13  C   UNL     1      62.740   9.628   3.847  1.00  0.00     0.126 C 
HETATM   14  N   UNL     1      63.624   8.480   4.083  1.00  0.00    -0.352 N 
HETATM   15  C   UNL     1      63.544   7.397   3.104  1.00  0.00     0.126 C 
HETATM   16  C   UNL     1      64.638   8.604   5.021  1.00  0.00     0.215 C 
HETATM   17  C   UNL     1      62.102   6.950   2.907  1.00  0.00     0.029 C 
HETATM   18  O   UNL     1      64.770   9.598   5.734  1.00  0.00    -0.274 OA
HETATM   19  C   UNL     1      65.601   7.450   5.155  1.00  0.00     0.117 C 
ENDBRANCH   1  11
TORSDOF 1
ENDMDL
MODEL 9
REMARK VINA RESULT:      -5.1      2.957      3.720
REMARK  1 active torsions:
REMARK  status: ('A' for Active; 'I' for Inactive)
REMARK    1  A    between atoms: C_1  and  C_8 
REMARK       I    between atoms: N_4  and  C_6 
ROOT
HETATM    1  C   UNL     1      61.500   8.143   2.514  1.00  0.00    -0.026 A 
HETATM    2  C   UNL     1      61.090   8.681   1.311  1.00  0.00     0.096 A 
HETATM    3  N   UNL     1      59.749   8.430   1.163  1.00  0.00    -0.365 N 
HETATM    4  C   UNL     1      60.346   7.533   3.106  1.00  0.00    -0.001 A 
HETATM    5  C   UNL     1      59.266   7.752   2.258  1.00  0.00     0.042 A 
HETATM    6  C   UNL     1      60.137   6.830   4.311  1.00  0.00     0.014 A 
HETATM    7  C   UNL     1      57.971   7.319   2.570  1.00  0.00     0.030 A 
HETATM    8  C   UNL     1      58.854   6.393   4.640  1.00  0.00     0.001 A 
HETATM    9  C   UNL     1      57.787   6.642   3.783  1.00  0.00     0.002 A 
HETATM   10  H   UNL     1      59.211   8.696   0.383  1.00  0.00     0.165 HD
ENDROOT
BRANCH   1  11
HETATM   11  C   UNL     1      62.847   8.159   3.176  1.00  0.00     0.024 C 
HETATM   12  C   UNL     1      62.926   8.843   4.542  1.00  0.00     0.029 C 
HETATM   13  C   UNL     1      64.394   8.914   4.971  1.00  0.00     0.126 C 
HETATM   14  N   UNL     1      65.032   7.592   4.949  1.00  0.00    -0.352 N 
HETATM   15  C   UNL     1      64.885   6.830   3.710  1.00  0.00     0.126 C 
HETATM   16  C   UNL     1      65.933   7.272   5.954  1.00  0.00     0.215 C 
HETATM   17  C   UNL     1      63.422   6.741   3.299  1.00  0.00     0.029 C 
HETATM   18  O   UNL     1      66.147   8.008   6.917  1.00  0.00    -0.274 OA
HETATM   19  C   UNL     1      66.660   5.956   5.837  1.00  0.00     0.117 C 
ENDBRANCH   1  11
TORSDOF 1
ENDMDL
