MODEL 1
REMARK VINA RESULT:      -5.4      0.000      0.000
REMARK  2 active torsions:
REMARK  status: ('A' for Active; 'I' for Inactive)
REMARK    1  A    between atoms: C_1  and  C_3 
REMARK    2  A    between atoms: C_3  and  C_4 
ROOT
HETATM    1  C   UNL     1      62.425   9.026   3.686  1.00  0.00    -0.048 A 
HETATM    2  C   UNL     1      61.811  11.349   2.265  1.00  0.00     0.116 A 
HETATM    3  F   UNL     1      61.520  12.465   1.582  1.00  0.00    -0.206 F 
HETATM    4  C   UNL     1      61.979  10.152   1.581  1.00  0.00     0.043 A 
HETATM    5  C   UNL     1      61.942  11.406   3.647  1.00  0.00     0.043 A 
HETATM    6  C   UNL     1      62.247  10.246   4.360  1.00  0.00     0.011 A 
HETATM    7  C   UNL     1      62.281   8.989   2.291  1.00  0.00     0.011 A 
ENDROOT
BRANCH   1   8
HETATM    8  C   UNL     1      62.747   7.763   4.453  1.00  0.00     0.151 C 
BRANCH   8   9
HETATM    9  C   UNL     1      63.507   7.997   5.735  1.00  0.00     0.176 C 
HETATM   10  O   UNL     1      64.668   8.338   5.877  1.00  0.00    -0.648 OA
HETATM   11  O   UNL     1      62.732   7.780   6.820  1.00  0.00    -0.648 OA
ENDBRANCH   8   9
ENDBRANCH   1   8
TORSDOF 2
ENDMDL
MODEL 2
REMARK VINA RESULT:      -5.3      0.633      1.590
REMARK  2 active torsions:
REMARK  status: ('A' for Active; 'I' for Inactive)
REMARK    1  A    between atoms: C_1  and  C_3 
REMARK    2  A    between atoms: C_3  and  C_4 
ROOT
HETATM    1  C   UNL     1      62.610   9.132   3.714  1.00  0.00    -0.048 A 
HETATM    2  C   UNL     1      61.784  11.378   2.277  1.00  0.00     0.116 A 
HETATM    3  F   UNL     1      61.385  12.456   1.588  1.00  0.00    -0.206 F 
HETATM    4  C   UNL     1      61.942  11.466   3.655  1.00  0.00     0.043 A 
HETATM    5  C   UNL     1      62.035  10.189   1.604  1.00  0.00     0.043 A 
HETATM    6  C   UNL     1      62.449   9.065   2.320  1.00  0.00     0.011 A 
HETATM    7  C   UNL     1      62.359  10.345   4.373  1.00  0.00     0.011 A 
ENDROOT
BRANCH   1   8
HETATM    8  C   UNL     1      63.067   7.920   4.495  1.00  0.00     0.151 C 
BRANCH   8   9
HETATM    9  C   UNL     1      64.289   8.160   5.347  1.00  0.00     0.176 C 
HETATM   10  O   UNL     1      65.314   8.750   5.055  1.00  0.00    -0.648 OA
HETATM   11  O   UNL     1      64.150   7.622   6.579  1.00  0.00    -0.648 OA
ENDBRANCH   8   9
ENDBRANCH   1   8
TORSDOF 2
ENDMDL
MODEL 3
REMARK VINA RESULT:      -4.7      3.551      4.504
REMARK  2 active torsions:
REMARK  status: ('A' for Active; 'I' for Inactive)
REMARK    1  A    between atoms: C_1  and  C_3 
REMARK    2  A    between atoms: C_3  and  C_4 
ROOT
HETATM    1  C   UNL     1      62.806   8.931   3.879  1.00  0.00    -0.048 A 
HETATM    2  C   UNL     1      65.060   7.340   4.305  1.00  0.00     0.116 A 
HETATM    3  F   UNL     1      66.140   6.574   4.512  1.00  0.00    -0.206 F 
HETATM    4  C   UNL     1      64.166   7.006   3.295  1.00  0.00     0.043 A 
HETATM    5  C   UNL     1      64.849   8.457   5.104  1.00  0.00     0.043 A 
HETATM    6  C   UNL     1      63.723   9.255   4.892  1.00  0.00     0.011 A 
HETATM    7  C   UNL     1      63.041   7.803   3.079  1.00  0.00     0.011 A 
ENDROOT
BRANCH   1   8
HETATM    8  C   UNL     1      61.589   9.796   3.637  1.00  0.00     0.151 C 
BRANCH   8   9
HETATM    9  C   UNL     1      61.905  11.167   3.094  1.00  0.00     0.176 C 
HETATM   10  O   UNL     1      62.103  11.498   1.937  1.00  0.00    -0.648 OA
HETATM   11  O   UNL     1      61.955  12.093   4.077  1.00  0.00    -0.648 OA
ENDBRANCH   8   9
ENDBRANCH   1   8
TORSDOF 2
ENDMDL
MODEL 4
REMARK VINA RESULT:      -4.5      1.452      2.258
REMARK  2 active torsions:
REMARK  status: ('A' for Active; 'I' for Inactive)
REMARK    1  A    between atoms: C_1  and  C_3 
REMARK    2  A    between atoms: C_3  and  C_4 
ROOT
HETATM    1  C   UNL     1      62.479   8.768   3.291  1.00  0.00    -0.048 A 
HETATM    2  C   UNL     1      61.838  11.261   2.209  1.00  0.00     0.116 A 
HETATM    3  F   UNL     1      61.527  12.457   1.690  1.00  0.00    -0.206 F 
HETATM    4  C   UNL     1      61.935  11.117   3.587  1.00  0.00     0.043 A 
HETATM    5  C   UNL     1      62.058  10.183   1.361  1.00  0.00     0.043 A 
HETATM    6  C   UNL     1      62.380   8.936   1.899  1.00  0.00     0.011 A 
HETATM    7  C   UNL     1      62.260   9.872   4.129  1.00  0.00     0.011 A 
ENDROOT
BRANCH   1   8
HETATM    8  C   UNL     1      62.837   7.423   3.880  1.00  0.00     0.151 C 
BRANCH   8   9
HETATM    9  C   UNL     1      64.284   7.035   3.702  1.00  0.00     0.176 C 
HETATM   10  O   UNL     1      65.258   7.438   4.313  1.00  0.00    -0.648 OA
HETATM   11  O   UNL     1      64.436   6.119   2.721  1.00  0.00    -0.648 OA
ENDBRANCH   8   9
ENDBRANCH   1   8
TORSDOF 2
ENDMDL
MODEL 5
REMARK VINA RESULT:      -4.4      1.723      1.947
REMARK  2 active torsions:
REMARK  status: ('A' for Active; 'I' for Inactive)
REMARK    1  A    between atoms: C_1  and  C_3 
REMARK    2  A    between atoms: C_3  and  C_4 
ROOT
HETATM    1  C   UNL     1      62.476   8.883   3.504  1.00  0.00    -0.048 A 
HETATM    2  C   UNL     1      61.816  11.281   2.234  1.00  0.00     0.116 A 
HETATM    3  F   UNL     1      61.502  12.432   1.624  1.00  0.00    -0.206 F 
HETATM    4  C   UNL     1      61.982  10.128   1.477  1.00  0.00     0.043 A 
HETATM    5  C   UNL     1      61.971  11.257   3.615  1.00  0.00     0.043 A 
HETATM    6  C   UNL     1      62.300  10.059   4.252  1.00  0.00     0.011 A 
HETATM    7  C   UNL     1      62.308   8.928   2.111  1.00  0.00     0.011 A 
ENDROOT
BRANCH   1   8
HETATM    8  C   UNL     1      62.824   7.581   4.188  1.00  0.00     0.151 C 
BRANCH   8   9
HETATM    9  C   UNL     1      61.655   6.643   4.361  1.00  0.00     0.176 C 
HETATM   10  O   UNL     1      60.489   6.917   4.590  1.00  0.00    -0.648 OA
HETATM   11  O   UNL     1      62.029   5.352   4.230  1.00  0.00    -0.648 OA
ENDBRANCH   8   9
ENDBRANCH   1   8
TORSDOF 2
ENDMDL
MODEL 6
REMARK VINA RESULT:      -4.1      2.078      3.144
REMARK  2 active torsions:
REMARK  status: ('A' for Active; 'I' for Inactive)
REMARK    1  A    between atoms: C_1  and  C_3 
REMARK    2  A    between atoms: C_3  and  C_4 
ROOT
HETATM    1  C   UNL     1      64.444   7.799   4.244  1.00  0.00    -0.048 A 
HETATM    2  C   UNL     1      62.086   8.562   2.958  1.00  0.00     0.116 A 
HETATM    3  F   UNL     1      60.953   8.927   2.344  1.00  0.00    -0.206 F 
HETATM    4  C   UNL     1      62.573   9.329   4.009  1.00  0.00     0.043 A 
HETATM    5  C   UNL     1      62.758   7.422   2.536  1.00  0.00     0.043 A 
HETATM    6  C   UNL     1      63.938   7.039   3.176  1.00  0.00     0.011 A 
HETATM    7  C   UNL     1      63.754   8.951   4.649  1.00  0.00     0.011 A 
ENDROOT
BRANCH   1   8
HETATM    8  C   UNL     1      65.727   7.395   4.936  1.00  0.00     0.151 C 
BRANCH   8   9
HETATM    9  C   UNL     1      65.751   7.695   6.414  1.00  0.00     0.176 C 
HETATM   10  O   UNL     1      65.180   7.108   7.317  1.00  0.00    -0.648 OA
HETATM   11  O   UNL     1      66.528   8.765   6.692  1.00  0.00    -0.648 OA
ENDBRANCH   8   9
ENDBRANCH   1   8
TORSDOF 2
ENDMDL
MODEL 7
REMARK VINA RESULT:      -4.0      1.804      2.347
REMARK  2 active torsions:
REMARK  status: ('A' for Active; 'I' for Inactive)
REMARK    1  A    between atoms: C_1  and  C_3 
REMARK    2  A    between atoms: C_3  and  C_4 
ROOT
HETATM    1  C   UNL     1      62.431   9.176   3.720  1.00  0.00    -0.048 A 
HETATM    2  C   UNL     1      61.121   8.516   1.345  1.00  0.00     0.116 A 
HETATM    3  F   UNL     1      60.495   8.197   0.203  1.00  0.00    -0.206 F 
HETATM    4  C   UNL     1      61.240   7.563   2.349  1.00  0.00     0.043 A 
HETATM    5  C   UNL     1      61.643   9.793   1.507  1.00  0.00     0.043 A 
HETATM    6  C   UNL     1      62.297  10.126   2.694  1.00  0.00     0.011 A 
HETATM    7  C   UNL     1      61.891   7.894   3.539  1.00  0.00     0.011 A 
ENDROOT
BRANCH   1   8
HETATM    8  C   UNL     1      63.131   9.532   5.012  1.00  0.00     0.151 C 
BRANCH   8   9
HETATM    9  C   UNL     1      64.352   8.696   5.304  1.00  0.00     0.176 C 
HETATM   10  O   UNL     1      65.414   8.668   4.707  1.00  0.00    -0.648 OA
HETATM   11  O   UNL     1      64.166   7.903   6.382  1.00  0.00    -0.648 OA
ENDBRANCH   8   9
ENDBRANCH   1   8
TORSDOF 2
ENDMDL
MODEL 8
REMARK VINA RESULT:      -3.9      1.626      1.995
REMARK  2 active torsions:
REMARK  status: ('A' for Active; 'I' for Inactive)
REMARK    1  A    between atoms: C_1  and  C_3 
REMARK    2  A    between atoms: C_3  and  C_4 
ROOT
HETATM    1  C   UNL     1      63.716   8.080   3.982  1.00  0.00    -0.048 A 
HETATM    2  C   UNL     1      61.846   9.068   2.159  1.00  0.00     0.116 A 
HETATM    3  F   UNL     1      60.951   9.544   1.282  1.00  0.00    -0.206 F 
HETATM    4  C   UNL     1      62.488   7.864   1.897  1.00  0.00     0.043 A 
HETATM    5  C   UNL     1      62.119   9.785   3.317  1.00  0.00     0.043 A 
HETATM    6  C   UNL     1      63.052   9.293   4.231  1.00  0.00     0.011 A 
HETATM    7  C   UNL     1      63.420   7.368   2.809  1.00  0.00     0.011 A 
ENDROOT
BRANCH   1   8
HETATM    8  C   UNL     1      64.721   7.536   4.971  1.00  0.00     0.151 C 
BRANCH   8   9
HETATM    9  C   UNL     1      64.108   6.984   6.234  1.00  0.00     0.176 C 
HETATM   10  O   UNL     1      64.464   7.154   7.388  1.00  0.00    -0.648 OA
HETATM   11  O   UNL     1      63.030   6.214   5.969  1.00  0.00    -0.648 OA
ENDBRANCH   8   9
ENDBRANCH   1   8
TORSDOF 2
ENDMDL
MODEL 9
REMARK VINA RESULT:      -3.9      4.898      6.212
REMARK  2 active torsions:
REMARK  status: ('A' for Active; 'I' for Inactive)
REMARK    1  A    between atoms: C_1  and  C_3 
REMARK    2  A    between atoms: C_3  and  C_4 
ROOT
HETATM    1  C   UNL     1      67.170   5.996   6.477  1.00  0.00    -0.048 A 
HETATM    2  C   UNL     1      65.621   7.964   5.243  1.00  0.00     0.116 A 
HETATM    3  F   UNL     1      64.876   8.906   4.648  1.00  0.00    -0.206 F 
HETATM    4  C   UNL     1      65.044   7.137   6.199  1.00  0.00     0.043 A 
HETATM    5  C   UNL     1      66.959   7.827   4.894  1.00  0.00     0.043 A 
HETATM    6  C   UNL     1      67.736   6.845   5.511  1.00  0.00     0.011 A 
HETATM    7  C   UNL     1      65.819   6.156   6.820  1.00  0.00     0.011 A 
ENDROOT
BRANCH   1   8
HETATM    8  C   UNL     1      68.008   4.936   7.156  1.00  0.00     0.151 C 
BRANCH   8   9
HETATM    9  C   UNL     1      67.795   4.841   8.646  1.00  0.00     0.176 C 
HETATM   10  O   UNL     1      68.073   5.658   9.506  1.00  0.00    -0.648 OA
HETATM   11  O   UNL     1      67.215   3.670   8.992  1.00  0.00    -0.648 OA
ENDBRANCH   8   9
ENDBRANCH   1   8
TORSDOF 2
ENDMDL
