MODEL 1
REMARK VINA RESULT:      -6.1      0.000      0.000
REMARK  1 active torsions:
REMARK  status: ('A' for Active; 'I' for Inactive)
REMARK    1  A    between atoms: C_9  and  O_12 
ROOT
HETATM    1  C   UNL     1      64.001   8.806   4.693  1.00  0.00     0.092 A 
HETATM    2  C   UNL     1      63.991   7.770   3.754  1.00  0.00     0.044 A 
HETATM    3  C   UNL     1      65.086   6.783   3.762  1.00  0.00     0.165 C 
HETATM    4  C   UNL     1      63.018   9.812   4.635  1.00  0.00     0.005 A 
HETATM    5  O   UNL     1      64.944   8.903   5.687  1.00  0.00    -0.339 OA
HETATM    6  C   UNL     1      65.687   7.704   5.973  1.00  0.00     0.067 C 
HETATM    7  C   UNL     1      66.227   7.078   4.688  1.00  0.00     0.121 C 
HETATM    8  C   UNL     1      62.979   7.680   2.795  1.00  0.00     0.021 A 
HETATM    9  C   UNL     1      62.014   9.712   3.661  1.00  0.00     0.074 A 
HETATM   10  O   UNL     1      65.081   5.819   3.004  1.00  0.00    -0.292 OA
HETATM   11  C   UNL     1      61.983   8.652   2.752  1.00  0.00     0.038 A 
HETATM   12  C   UNL     1      63.061  10.960   5.607  1.00  0.00     0.054 C 
HETATM   13  C   UNL     1      64.827   6.726   6.794  1.00  0.00     0.046 C 
HETATM   14  C   UNL     1      66.876   8.135   6.844  1.00  0.00     0.046 C 
ENDROOT
BRANCH   9  15
HETATM   15  O   UNL     1      61.048  10.676   3.602  1.00  0.00    -0.360 OA
HETATM   16  H   UNL     1      61.094  11.346   2.948  1.00  0.00     0.217 HD
ENDBRANCH   9  15
TORSDOF 1
ENDMDL
MODEL 2
REMARK VINA RESULT:      -5.7      1.972      3.519
REMARK  1 active torsions:
REMARK  status: ('A' for Active; 'I' for Inactive)
REMARK    1  A    between atoms: C_9  and  O_12 
ROOT
HETATM    1  C   UNL     1      62.500   8.438   3.411  1.00  0.00     0.092 A 
HETATM    2  C   UNL     1      62.752   8.686   4.764  1.00  0.00     0.044 A 
HETATM    3  C   UNL     1      63.050   7.554   5.658  1.00  0.00     0.165 C 
HETATM    4  C   UNL     1      62.115   9.495   2.565  1.00  0.00     0.005 A 
HETATM    5  O   UNL     1      62.601   7.188   2.849  1.00  0.00    -0.339 OA
HETATM    6  C   UNL     1      63.349   6.216   3.604  1.00  0.00     0.067 C 
HETATM    7  C   UNL     1      62.891   6.187   5.061  1.00  0.00     0.121 C 
HETATM    8  C   UNL     1      62.691   9.983   5.279  1.00  0.00     0.021 A 
HETATM    9  C   UNL     1      62.050  10.790   3.100  1.00  0.00     0.074 A 
HETATM   10  O   UNL     1      63.347   7.731   6.834  1.00  0.00    -0.292 OA
HETATM   11  C   UNL     1      62.344  11.041   4.441  1.00  0.00     0.038 A 
HETATM   12  C   UNL     1      61.786   9.221   1.122  1.00  0.00     0.054 C 
HETATM   13  C   UNL     1      64.860   6.476   3.460  1.00  0.00     0.046 C 
HETATM   14  C   UNL     1      63.040   4.853   2.967  1.00  0.00     0.046 C 
ENDROOT
BRANCH   9  15
HETATM   15  O   UNL     1      61.689  11.827   2.286  1.00  0.00    -0.360 OA
HETATM   16  H   UNL     1      60.867  12.260   2.416  1.00  0.00     0.217 HD
ENDBRANCH   9  15
TORSDOF 1
ENDMDL
MODEL 3
REMARK VINA RESULT:      -5.4      1.731      3.869
REMARK  1 active torsions:
REMARK  status: ('A' for Active; 'I' for Inactive)
REMARK    1  A    between atoms: C_9  and  O_12 
ROOT
HETATM    1  C   UNL     1      63.357   8.512   3.652  1.00  0.00     0.092 A 
HETATM    2  C   UNL     1      62.303   9.126   2.968  1.00  0.00     0.044 A 
HETATM    3  C   UNL     1      61.747   8.472   1.770  1.00  0.00     0.165 C 
HETATM    4  C   UNL     1      63.965   9.170   4.737  1.00  0.00     0.005 A 
HETATM    5  O   UNL     1      63.849   7.276   3.310  1.00  0.00    -0.339 OA
HETATM    6  C   UNL     1      62.998   6.464   2.480  1.00  0.00     0.067 C 
HETATM    7  C   UNL     1      62.485   7.262   1.281  1.00  0.00     0.121 C 
HETATM    8  C   UNL     1      61.798  10.360   3.386  1.00  0.00     0.021 A 
HETATM    9  C   UNL     1      63.452  10.412   5.139  1.00  0.00     0.074 A 
HETATM   10  O   UNL     1      60.778   8.938   1.181  1.00  0.00    -0.292 OA
HETATM   11  C   UNL     1      62.372  11.003   4.481  1.00  0.00     0.038 A 
HETATM   12  C   UNL     1      65.137   8.538   5.438  1.00  0.00     0.054 C 
HETATM   13  C   UNL     1      61.860   5.853   3.317  1.00  0.00     0.046 C 
HETATM   14  C   UNL     1      63.875   5.315   1.963  1.00  0.00     0.046 C 
ENDROOT
BRANCH   9  15
HETATM   15  O   UNL     1      64.026  11.057   6.199  1.00  0.00    -0.360 OA
HETATM   16  H   UNL     1      64.958  11.049   6.302  1.00  0.00     0.217 HD
ENDBRANCH   9  15
TORSDOF 1
ENDMDL
MODEL 4
REMARK VINA RESULT:      -5.4      2.286      2.948
REMARK  1 active torsions:
REMARK  status: ('A' for Active; 'I' for Inactive)
REMARK    1  A    between atoms: C_9  and  O_12 
ROOT
HETATM    1  C   UNL     1      62.788   8.601   3.385  1.00  0.00     0.092 A 
HETATM    2  C   UNL     1      62.500   8.445   2.026  1.00  0.00     0.044 A 
HETATM    3  C   UNL     1      62.802   7.160   1.371  1.00  0.00     0.165 C 
HETATM    4  C   UNL     1      62.600   9.852   4.002  1.00  0.00     0.005 A 
HETATM    5  O   UNL     1      63.263   7.578   4.170  1.00  0.00    -0.339 OA
HETATM    6  C   UNL     1      63.088   6.248   3.648  1.00  0.00     0.067 C 
HETATM    7  C   UNL     1      63.561   6.165   2.197  1.00  0.00     0.121 C 
HETATM    8  C   UNL     1      61.965   9.498   1.280  1.00  0.00     0.021 A 
HETATM    9  C   UNL     1      62.069  10.901   3.237  1.00  0.00     0.074 A 
HETATM   10  O   UNL     1      62.502   6.954   0.200  1.00  0.00    -0.292 OA
HETATM   11  C   UNL     1      61.743  10.730   1.890  1.00  0.00     0.038 A 
HETATM   12  C   UNL     1      62.964  10.038   5.450  1.00  0.00     0.054 C 
HETATM   13  C   UNL     1      61.628   5.793   3.825  1.00  0.00     0.046 C 
HETATM   14  C   UNL     1      63.976   5.333   4.504  1.00  0.00     0.046 C 
ENDROOT
BRANCH   9  15
HETATM   15  O   UNL     1      61.872  12.119   3.826  1.00  0.00    -0.360 OA
HETATM   16  H   UNL     1      62.415  12.846   3.593  1.00  0.00     0.217 HD
ENDBRANCH   9  15
TORSDOF 1
ENDMDL
MODEL 5
REMARK VINA RESULT:      -5.3      1.684      4.392
REMARK  1 active torsions:
REMARK  status: ('A' for Active; 'I' for Inactive)
REMARK    1  A    between atoms: C_9  and  O_12 
ROOT
HETATM    1  C   UNL     1      62.339   8.884   3.374  1.00  0.00     0.092 A 
HETATM    2  C   UNL     1      63.029   7.675   3.507  1.00  0.00     0.044 A 
HETATM    3  C   UNL     1      62.591   6.509   2.719  1.00  0.00     0.165 C 
HETATM    4  C   UNL     1      62.680   9.978   4.191  1.00  0.00     0.005 A 
HETATM    5  O   UNL     1      61.317   9.066   2.474  1.00  0.00    -0.339 OA
HETATM    6  C   UNL     1      61.237   8.103   1.407  1.00  0.00     0.067 C 
HETATM    7  C   UNL     1      61.314   6.677   1.952  1.00  0.00     0.121 C 
HETATM    8  C   UNL     1      64.099   7.553   4.396  1.00  0.00     0.021 A 
HETATM    9  C   UNL     1      63.751   9.837   5.085  1.00  0.00     0.074 A 
HETATM   10  O   UNL     1      63.209   5.450   2.750  1.00  0.00    -0.292 OA
HETATM   11  C   UNL     1      64.466   8.641   5.185  1.00  0.00     0.038 A 
HETATM   12  C   UNL     1      61.901  11.261   4.092  1.00  0.00     0.054 C 
HETATM   13  C   UNL     1      62.312   8.392   0.344  1.00  0.00     0.046 C 
HETATM   14  C   UNL     1      59.861   8.302   0.754  1.00  0.00     0.046 C 
ENDROOT
BRANCH   9  15
HETATM   15  O   UNL     1      64.100  10.895   5.877  1.00  0.00    -0.360 OA
HETATM   16  H   UNL     1      64.229  11.741   5.497  1.00  0.00     0.217 HD
ENDBRANCH   9  15
TORSDOF 1
ENDMDL
MODEL 6
REMARK VINA RESULT:      -5.2      1.609      5.222
REMARK  1 active torsions:
REMARK  status: ('A' for Active; 'I' for Inactive)
REMARK    1  A    between atoms: C_9  and  O_12 
ROOT
HETATM    1  C   UNL     1      63.269   7.856   3.130  1.00  0.00     0.092 A 
HETATM    2  C   UNL     1      63.108   9.022   3.885  1.00  0.00     0.044 A 
HETATM    3  C   UNL     1      62.125  10.030   3.447  1.00  0.00     0.165 C 
HETATM    4  C   UNL     1      64.272   6.931   3.478  1.00  0.00     0.005 A 
HETATM    5  O   UNL     1      62.491   7.559   2.038  1.00  0.00    -0.339 OA
HETATM    6  C   UNL     1      61.255   8.290   1.926  1.00  0.00     0.067 C 
HETATM    7  C   UNL     1      61.489   9.788   2.111  1.00  0.00     0.121 C 
HETATM    8  C   UNL     1      63.886   9.256   5.021  1.00  0.00     0.021 A 
HETATM    9  C   UNL     1      65.050   7.184   4.617  1.00  0.00     0.074 A 
HETATM   10  O   UNL     1      61.900  11.033   4.115  1.00  0.00    -0.292 OA
HETATM   11  C   UNL     1      64.857   8.329   5.392  1.00  0.00     0.038 A 
HETATM   12  C   UNL     1      64.487   5.704   2.633  1.00  0.00     0.054 C 
HETATM   13  C   UNL     1      60.211   7.726   2.907  1.00  0.00     0.046 C 
HETATM   14  C   UNL     1      60.744   8.047   0.498  1.00  0.00     0.046 C 
ENDROOT
BRANCH   9  15
HETATM   15  O   UNL     1      66.020   6.289   4.971  1.00  0.00    -0.360 OA
HETATM   16  H   UNL     1      65.788   5.503   5.425  1.00  0.00     0.217 HD
ENDBRANCH   9  15
TORSDOF 1
ENDMDL
MODEL 7
REMARK VINA RESULT:      -4.9      1.875      4.961
REMARK  1 active torsions:
REMARK  status: ('A' for Active; 'I' for Inactive)
REMARK    1  A    between atoms: C_9  and  O_12 
ROOT
HETATM    1  C   UNL     1      64.533   6.874   3.896  1.00  0.00     0.092 A 
HETATM    2  C   UNL     1      65.098   7.893   4.670  1.00  0.00     0.044 A 
HETATM    3  C   UNL     1      64.242   8.997   5.138  1.00  0.00     0.165 C 
HETATM    4  C   UNL     1      65.355   5.866   3.359  1.00  0.00     0.005 A 
HETATM    5  O   UNL     1      63.189   6.805   3.619  1.00  0.00    -0.339 OA
HETATM    6  C   UNL     1      62.328   7.589   4.466  1.00  0.00     0.067 C 
HETATM    7  C   UNL     1      62.845   9.021   4.593  1.00  0.00     0.121 C 
HETATM    8  C   UNL     1      66.461   7.892   4.974  1.00  0.00     0.021 A 
HETATM    9  C   UNL     1      66.723   5.884   3.666  1.00  0.00     0.074 A 
HETATM   10  O   UNL     1      64.678   9.874   5.876  1.00  0.00    -0.292 OA
HETATM   11  C   UNL     1      67.277   6.879   4.474  1.00  0.00     0.038 A 
HETATM   12  C   UNL     1      64.759   4.802   2.478  1.00  0.00     0.054 C 
HETATM   13  C   UNL     1      62.149   6.898   5.830  1.00  0.00     0.046 C 
HETATM   14  C   UNL     1      60.960   7.622   3.769  1.00  0.00     0.046 C 
ENDROOT
BRANCH   9  15
HETATM   15  O   UNL     1      67.531   4.905   3.159  1.00  0.00    -0.360 OA
HETATM   16  H   UNL     1      67.735   4.893   2.244  1.00  0.00     0.217 HD
ENDBRANCH   9  15
TORSDOF 1
ENDMDL
MODEL 8
REMARK VINA RESULT:      -4.9      2.796      6.025
REMARK  1 active torsions:
REMARK  status: ('A' for Active; 'I' for Inactive)
REMARK    1  A    between atoms: C_9  and  O_12 
ROOT
HETATM    1  C   UNL     1      65.662   5.586   6.653  1.00  0.00     0.092 A 
HETATM    2  C   UNL     1      66.178   6.829   7.032  1.00  0.00     0.044 A 
HETATM    3  C   UNL     1      65.829   8.022   6.239  1.00  0.00     0.165 C 
HETATM    4  C   UNL     1      66.064   4.424   7.338  1.00  0.00     0.005 A 
HETATM    5  O   UNL     1      64.770   5.431   5.621  1.00  0.00    -0.339 OA
HETATM    6  C   UNL     1      64.084   6.622   5.193  1.00  0.00     0.067 C 
HETATM    7  C   UNL     1      65.071   7.768   4.971  1.00  0.00     0.121 C 
HETATM    8  C   UNL     1      67.040   6.947   8.125  1.00  0.00     0.021 A 
HETATM    9  C   UNL     1      66.936   4.558   8.428  1.00  0.00     0.074 A 
HETATM   10  O   UNL     1      66.200   9.142   6.574  1.00  0.00    -0.292 OA
HETATM   11  C   UNL     1      67.416   5.806   8.830  1.00  0.00     0.038 A 
HETATM   12  C   UNL     1      65.556   3.078   6.896  1.00  0.00     0.054 C 
HETATM   13  C   UNL     1      62.968   6.984   6.190  1.00  0.00     0.046 C 
HETATM   14  C   UNL     1      63.425   6.277   3.849  1.00  0.00     0.046 C 
ENDROOT
BRANCH   9  15
HETATM   15  O   UNL     1      67.326   3.438   9.109  1.00  0.00    -0.360 OA
HETATM   16  H   UNL     1      67.996   3.496   9.761  1.00  0.00     0.217 HD
ENDBRANCH   9  15
TORSDOF 1
ENDMDL
MODEL 9
REMARK VINA RESULT:      -4.9      2.407      5.079
REMARK  1 active torsions:
REMARK  status: ('A' for Active; 'I' for Inactive)
REMARK    1  A    between atoms: C_9  and  O_12 
ROOT
HETATM    1  C   UNL     1      62.284   8.168   3.493  1.00  0.00     0.092 A 
HETATM    2  C   UNL     1      62.324   9.559   3.359  1.00  0.00     0.044 A 
HETATM    3  C   UNL     1      62.100  10.159   2.032  1.00  0.00     0.165 C 
HETATM    4  C   UNL     1      62.594   7.575   4.731  1.00  0.00     0.005 A 
HETATM    5  O   UNL     1      61.958   7.327   2.457  1.00  0.00    -0.339 OA
HETATM    6  C   UNL     1      61.284   7.934   1.339  1.00  0.00     0.067 C 
HETATM    7  C   UNL     1      62.011   9.198   0.884  1.00  0.00     0.121 C 
HETATM    8  C   UNL     1      62.605  10.378   4.455  1.00  0.00     0.021 A 
HETATM    9  C   UNL     1      62.883   8.411   5.820  1.00  0.00     0.074 A 
HETATM   10  O   UNL     1      62.056  11.375   1.881  1.00  0.00    -0.292 OA
HETATM   11  C   UNL     1      62.880   9.801   5.693  1.00  0.00     0.038 A 
HETATM   12  C   UNL     1      62.609   6.076   4.863  1.00  0.00     0.054 C 
HETATM   13  C   UNL     1      59.805   8.190   1.683  1.00  0.00     0.046 C 
HETATM   14  C   UNL     1      61.334   6.905   0.200  1.00  0.00     0.046 C 
ENDROOT
BRANCH   9  15
HETATM   15  O   UNL     1      63.175   7.848   7.031  1.00  0.00    -0.360 OA
HETATM   16  H   UNL     1      62.520   7.809   7.699  1.00  0.00     0.217 HD
ENDBRANCH   9  15
TORSDOF 1
ENDMDL
