MODEL 1
REMARK VINA RESULT:      -4.4      0.000      0.000
REMARK  1 active torsions:
REMARK  status: ('A' for Active; 'I' for Inactive)
REMARK    1  A    between atoms: C_4  and  O_8 
ROOT
HETATM    1  N   UNL     1      62.869   8.854   3.358  1.00  0.00    -0.361 N 
ATOM      2  HN  UNL     1      63.136   7.934   3.010  1.00  0.00     0.165 HD
HETATM    3  C   UNL     1      63.159   9.225   4.635  1.00  0.00     0.039 A 
HETATM    4  C   UNL     1      62.799  10.476   5.136  1.00  0.00     0.087 A 
HETATM    5  C   UNL     1      62.219   9.734   2.559  1.00  0.00     0.005 A 
HETATM    6  C   UNL     1      62.143  11.371   4.298  1.00  0.00     0.040 A 
HETATM    7  C   UNL     1      61.850  11.002   2.990  1.00  0.00     0.027 A 
HETATM    8  C   UNL     1      63.883   8.179   5.428  1.00  0.00     0.071 C 
HETATM    9  C   UNL     1      61.918   9.297   1.157  1.00  0.00     0.068 C 
ENDROOT
BRANCH   4  10
HETATM   10  O   UNL     1      63.038  10.920   6.403  1.00  0.00    -0.359 OA
HETATM   11  H   UNL     1      62.531  11.625   6.756  1.00  0.00     0.217 HD
ENDBRANCH   4  10
TORSDOF 1
ENDMDL
MODEL 2
REMARK VINA RESULT:      -4.1      1.897      3.308
REMARK  1 active torsions:
REMARK  status: ('A' for Active; 'I' for Inactive)
REMARK    1  A    between atoms: C_4  and  O_8 
ROOT
HETATM    1  N   UNL     1      64.187   9.338   5.404  1.00  0.00    -0.361 N 
ATOM      2  HN  UNL     1      64.800   9.605   6.175  1.00  0.00     0.165 HD
HETATM    3  C   UNL     1      63.115  10.107   5.072  1.00  0.00     0.039 A 
HETATM    4  C   UNL     1      62.259   9.760   4.026  1.00  0.00     0.087 A 
HETATM    5  C   UNL     1      64.425   8.211   4.690  1.00  0.00     0.005 A 
HETATM    6  C   UNL     1      62.525   8.606   3.296  1.00  0.00     0.040 A 
HETATM    7  C   UNL     1      63.623   7.820   3.625  1.00  0.00     0.027 A 
HETATM    8  C   UNL     1      62.949  11.329   5.922  1.00  0.00     0.071 C 
HETATM    9  C   UNL     1      65.616   7.389   5.080  1.00  0.00     0.068 C 
ENDROOT
BRANCH   4  10
HETATM   10  O   UNL     1      61.158  10.463   3.637  1.00  0.00    -0.359 OA
HETATM   11  H   UNL     1      61.185  11.400   3.608  1.00  0.00     0.217 HD
ENDBRANCH   4  10
TORSDOF 1
ENDMDL
MODEL 3
REMARK VINA RESULT:      -4.1      1.521      3.153
REMARK  1 active torsions:
REMARK  status: ('A' for Active; 'I' for Inactive)
REMARK    1  A    between atoms: C_4  and  O_8 
ROOT
HETATM    1  N   UNL     1      63.101   8.382   3.092  1.00  0.00    -0.361 N 
ATOM      2  HN  UNL     1      63.359   7.542   2.574  1.00  0.00     0.165 HD
HETATM    3  C   UNL     1      62.353   9.357   2.508  1.00  0.00     0.039 A 
HETATM    4  C   UNL     1      61.994  10.517   3.194  1.00  0.00     0.087 A 
HETATM    5  C   UNL     1      63.497   8.550   4.377  1.00  0.00     0.005 A 
HETATM    6  C   UNL     1      62.398  10.667   4.516  1.00  0.00     0.040 A 
HETATM    7  C   UNL     1      63.157   9.673   5.122  1.00  0.00     0.027 A 
HETATM    8  C   UNL     1      61.967   9.066   1.090  1.00  0.00     0.071 C 
HETATM    9  C   UNL     1      64.318   7.457   4.992  1.00  0.00     0.068 C 
ENDROOT
BRANCH   4  10
HETATM   10  O   UNL     1      61.261  11.546   2.681  1.00  0.00    -0.359 OA
HETATM   11  H   UNL     1      60.836  12.152   3.255  1.00  0.00     0.217 HD
ENDBRANCH   4  10
TORSDOF 1
ENDMDL
MODEL 4
REMARK VINA RESULT:      -3.9      2.063      2.978
REMARK  1 active torsions:
REMARK  status: ('A' for Active; 'I' for Inactive)
REMARK    1  A    between atoms: C_4  and  O_8 
ROOT
HETATM    1  N   UNL     1      62.473   8.871   3.913  1.00  0.00    -0.361 N 
ATOM      2  HN  UNL     1      62.650   8.546   4.863  1.00  0.00     0.165 HD
HETATM    3  C   UNL     1      62.313  10.197   3.650  1.00  0.00     0.039 A 
HETATM    4  C   UNL     1      62.065  10.664   2.359  1.00  0.00     0.087 A 
HETATM    5  C   UNL     1      62.394   7.992   2.885  1.00  0.00     0.005 A 
HETATM    6  C   UNL     1      62.000   9.749   1.315  1.00  0.00     0.040 A 
HETATM    7  C   UNL     1      62.169   8.394   1.574  1.00  0.00     0.027 A 
HETATM    8  C   UNL     1      62.425  11.078   4.856  1.00  0.00     0.071 C 
HETATM    9  C   UNL     1      62.578   6.539   3.207  1.00  0.00     0.068 C 
ENDROOT
BRANCH   4  10
HETATM   10  O   UNL     1      61.879  11.970   2.013  1.00  0.00    -0.359 OA
HETATM   11  H   UNL     1      62.600  12.568   2.031  1.00  0.00     0.217 HD
ENDBRANCH   4  10
TORSDOF 1
ENDMDL
MODEL 5
REMARK VINA RESULT:      -3.9      2.466      3.339
REMARK  1 active torsions:
REMARK  status: ('A' for Active; 'I' for Inactive)
REMARK    1  A    between atoms: C_4  and  O_8 
ROOT
HETATM    1  N   UNL     1      62.951   9.165   4.005  1.00  0.00    -0.361 N 
ATOM      2  HN  UNL     1      63.387   8.646   4.767  1.00  0.00     0.165 HD
HETATM    3  C   UNL     1      62.763   8.585   2.788  1.00  0.00     0.039 A 
HETATM    4  C   UNL     1      62.174   9.276   1.729  1.00  0.00     0.087 A 
HETATM    5  C   UNL     1      62.545  10.445   4.183  1.00  0.00     0.005 A 
HETATM    6  C   UNL     1      61.752  10.585   1.933  1.00  0.00     0.040 A 
HETATM    7  C   UNL     1      61.934  11.181   3.175  1.00  0.00     0.027 A 
HETATM    8  C   UNL     1      63.243   7.168   2.703  1.00  0.00     0.071 C 
HETATM    9  C   UNL     1      62.763  11.053   5.535  1.00  0.00     0.068 C 
ENDROOT
BRANCH   4  10
HETATM   10  O   UNL     1      61.962   8.776   0.478  1.00  0.00    -0.359 OA
HETATM   11  H   UNL     1      61.192   9.016   0.001  1.00  0.00     0.217 HD
ENDBRANCH   4  10
TORSDOF 1
ENDMDL
MODEL 6
REMARK VINA RESULT:      -3.7      1.724      2.780
REMARK  1 active torsions:
REMARK  status: ('A' for Active; 'I' for Inactive)
REMARK    1  A    between atoms: C_4  and  O_8 
ROOT
HETATM    1  N   UNL     1      62.550   9.153   3.713  1.00  0.00    -0.361 N 
ATOM      2  HN  UNL     1      61.735   9.715   3.467  1.00  0.00     0.165 HD
HETATM    3  C   UNL     1      63.371   9.527   4.731  1.00  0.00     0.039 A 
HETATM    4  C   UNL     1      64.494   8.778   5.082  1.00  0.00     0.087 A 
HETATM    5  C   UNL     1      62.837   8.017   3.032  1.00  0.00     0.005 A 
HETATM    6  C   UNL     1      64.766   7.608   4.380  1.00  0.00     0.040 A 
HETATM    7  C   UNL     1      63.928   7.216   3.343  1.00  0.00     0.027 A 
HETATM    8  C   UNL     1      62.958  10.793   5.417  1.00  0.00     0.071 C 
HETATM    9  C   UNL     1      61.911   7.631   1.918  1.00  0.00     0.068 C 
ENDROOT
BRANCH   4  10
HETATM   10  O   UNL     1      65.374   9.088   6.076  1.00  0.00    -0.359 OA
HETATM   11  H   UNL     1      65.303   8.672   6.912  1.00  0.00     0.217 HD
ENDBRANCH   4  10
TORSDOF 1
ENDMDL
MODEL 7
REMARK VINA RESULT:      -3.6      1.631      1.920
REMARK  1 active torsions:
REMARK  status: ('A' for Active; 'I' for Inactive)
REMARK    1  A    between atoms: C_4  and  O_8 
ROOT
HETATM    1  N   UNL     1      63.234   7.817   2.990  1.00  0.00    -0.361 N 
ATOM      2  HN  UNL     1      63.214   7.073   2.292  1.00  0.00     0.165 HD
HETATM    3  C   UNL     1      64.196   7.842   3.952  1.00  0.00     0.039 A 
HETATM    4  C   UNL     1      64.240   8.845   4.921  1.00  0.00     0.087 A 
HETATM    5  C   UNL     1      62.303   8.802   2.978  1.00  0.00     0.005 A 
HETATM    6  C   UNL     1      63.284   9.854   4.885  1.00  0.00     0.040 A 
HETATM    7  C   UNL     1      62.302   9.840   3.901  1.00  0.00     0.027 A 
HETATM    8  C   UNL     1      65.175   6.711   3.870  1.00  0.00     0.071 C 
HETATM    9  C   UNL     1      61.259   8.747   1.903  1.00  0.00     0.068 C 
ENDROOT
BRANCH   4  10
HETATM   10  O   UNL     1      65.157   8.936   5.925  1.00  0.00    -0.359 OA
HETATM   11  H   UNL     1      65.975   9.368   5.776  1.00  0.00     0.217 HD
ENDBRANCH   4  10
TORSDOF 1
ENDMDL
MODEL 8
REMARK VINA RESULT:      -3.6      4.121      4.956
REMARK  1 active torsions:
REMARK  status: ('A' for Active; 'I' for Inactive)
REMARK    1  A    between atoms: C_4  and  O_8 
ROOT
HETATM    1  N   UNL     1      64.815   6.914   7.185  1.00  0.00    -0.361 N 
ATOM      2  HN  UNL     1      64.391   6.508   8.020  1.00  0.00     0.165 HD
HETATM    3  C   UNL     1      66.150   7.171   7.139  1.00  0.00     0.039 A 
HETATM    4  C   UNL     1      66.751   7.731   6.011  1.00  0.00     0.087 A 
HETATM    5  C   UNL     1      64.059   7.208   6.100  1.00  0.00     0.005 A 
HETATM    6  C   UNL     1      65.962   8.014   4.901  1.00  0.00     0.040 A 
HETATM    7  C   UNL     1      64.598   7.748   4.939  1.00  0.00     0.027 A 
HETATM    8  C   UNL     1      66.889   6.804   8.389  1.00  0.00     0.071 C 
HETATM    9  C   UNL     1      62.592   6.910   6.182  1.00  0.00     0.068 C 
ENDROOT
BRANCH   4  10
HETATM   10  O   UNL     1      68.075   8.033   5.886  1.00  0.00    -0.359 OA
HETATM   11  H   UNL     1      68.367   8.916   5.997  1.00  0.00     0.217 HD
ENDBRANCH   4  10
TORSDOF 1
ENDMDL
MODEL 9
REMARK VINA RESULT:      -3.6      6.424      6.587
REMARK  1 active torsions:
REMARK  status: ('A' for Active; 'I' for Inactive)
REMARK    1  A    between atoms: C_4  and  O_8 
ROOT
HETATM    1  N   UNL     1      58.475   6.076   6.070  1.00  0.00    -0.361 N 
ATOM      2  HN  UNL     1      58.989   5.622   5.315  1.00  0.00     0.165 HD
HETATM    3  C   UNL     1      58.907   5.984   7.357  1.00  0.00     0.039 A 
HETATM    4  C   UNL     1      58.217   6.590   8.408  1.00  0.00     0.087 A 
HETATM    5  C   UNL     1      57.348   6.783   5.812  1.00  0.00     0.005 A 
HETATM    6  C   UNL     1      57.070   7.322   8.123  1.00  0.00     0.040 A 
HETATM    7  C   UNL     1      56.627   7.427   6.810  1.00  0.00     0.027 A 
HETATM    8  C   UNL     1      60.162   5.184   7.527  1.00  0.00     0.071 C 
HETATM    9  C   UNL     1      56.902   6.868   4.384  1.00  0.00     0.068 C 
ENDROOT
BRANCH   4  10
HETATM   10  O   UNL     1      58.572   6.536   9.723  1.00  0.00    -0.359 OA
HETATM   11  H   UNL     1      58.577   5.714  10.174  1.00  0.00     0.217 HD
ENDBRANCH   4  10
TORSDOF 1
ENDMDL
