MODEL 1
REMARK VINA RESULT:      -5.3      0.000      0.000
REMARK  2 active torsions:
REMARK  status: ('A' for Active; 'I' for Inactive)
REMARK    1  A    between atoms: C_1  and  C_5 
REMARK    2  A    between atoms: C_5  and  C_7 
ROOT
HETATM    1  C   UNL     1      63.315   7.824   4.141  1.00  0.00    -0.020 A 
HETATM    2  N   UNL     1      62.867   7.676   1.961  1.00  0.00    -0.365 N 
HETATM    3  C   UNL     1      63.376   6.998   3.035  1.00  0.00     0.097 A 
HETATM    4  C   UNL     1      62.771   9.073   3.694  1.00  0.00    -0.001 A 
HETATM    5  C   UNL     1      62.501   8.948   2.331  1.00  0.00     0.042 A 
HETATM    6  C   UNL     1      62.480  10.302   4.322  1.00  0.00     0.014 A 
HETATM    7  C   UNL     1      61.955   9.985   1.564  1.00  0.00     0.030 A 
HETATM    8  C   UNL     1      61.943  11.354   3.569  1.00  0.00     0.001 A 
HETATM    9  C   UNL     1      61.685  11.195   2.211  1.00  0.00     0.002 A 
HETATM   10  H   UNL     1      62.776   7.305   1.054  1.00  0.00     0.165 HD
ENDROOT
BRANCH   1  11
HETATM   11  C   UNL     1      63.746   7.475   5.531  1.00  0.00     0.154 C 
BRANCH  11  12
HETATM   12  C   UNL     1      65.170   7.894   5.814  1.00  0.00     0.177 C 
HETATM   13  O   UNL     1      65.914   8.562   5.114  1.00  0.00    -0.648 OA
HETATM   14  O   UNL     1      65.588   7.499   7.037  1.00  0.00    -0.648 OA
ENDBRANCH  11  12
ENDBRANCH   1  11
TORSDOF 2
ENDMDL
MODEL 2
REMARK VINA RESULT:      -5.3      1.353      2.280
REMARK  2 active torsions:
REMARK  status: ('A' for Active; 'I' for Inactive)
REMARK    1  A    between atoms: C_1  and  C_5 
REMARK    2  A    between atoms: C_5  and  C_7 
ROOT
HETATM    1  C   UNL     1      63.272   8.783   4.818  1.00  0.00    -0.020 A 
HETATM    2  N   UNL     1      62.314  10.692   4.174  1.00  0.00    -0.365 N 
HETATM    3  C   UNL     1      62.890  10.045   5.233  1.00  0.00     0.097 A 
HETATM    4  C   UNL     1      62.871   8.661   3.447  1.00  0.00    -0.001 A 
HETATM    5  C   UNL     1      62.278   9.868   3.075  1.00  0.00     0.042 A 
HETATM    6  C   UNL     1      62.959   7.635   2.484  1.00  0.00     0.014 A 
HETATM    7  C   UNL     1      61.769  10.102   1.791  1.00  0.00     0.030 A 
HETATM    8  C   UNL     1      62.446   7.848   1.197  1.00  0.00     0.001 A 
HETATM    9  C   UNL     1      61.861   9.065   0.859  1.00  0.00     0.002 A 
HETATM   10  H   UNL     1      61.973  11.615   4.196  1.00  0.00     0.165 HD
ENDROOT
BRANCH   1  11
HETATM   11  C   UNL     1      63.962   7.749   5.651  1.00  0.00     0.154 C 
BRANCH  11  12
HETATM   12  C   UNL     1      65.439   8.028   5.805  1.00  0.00     0.177 C 
HETATM   13  O   UNL     1      66.194   8.562   5.008  1.00  0.00    -0.648 OA
HETATM   14  O   UNL     1      65.903   7.675   7.024  1.00  0.00    -0.648 OA
ENDBRANCH  11  12
ENDBRANCH   1  11
TORSDOF 2
ENDMDL
MODEL 3
REMARK VINA RESULT:      -5.0      2.849      4.679
REMARK  2 active torsions:
REMARK  status: ('A' for Active; 'I' for Inactive)
REMARK    1  A    between atoms: C_1  and  C_5 
REMARK    2  A    between atoms: C_5  and  C_7 
ROOT
HETATM    1  C   UNL     1      62.858   9.231   4.167  1.00  0.00    -0.020 A 
HETATM    2  N   UNL     1      64.627   8.788   5.453  1.00  0.00    -0.365 N 
HETATM    3  C   UNL     1      63.603   9.672   5.245  1.00  0.00     0.097 A 
HETATM    4  C   UNL     1      63.492   8.037   3.688  1.00  0.00    -0.001 A 
HETATM    5  C   UNL     1      64.591   7.787   4.512  1.00  0.00     0.042 A 
HETATM    6  C   UNL     1      63.234   7.142   2.629  1.00  0.00     0.014 A 
HETATM    7  C   UNL     1      65.443   6.690   4.332  1.00  0.00     0.030 A 
HETATM    8  C   UNL     1      64.082   6.044   2.429  1.00  0.00     0.001 A 
HETATM    9  C   UNL     1      65.169   5.824   3.270  1.00  0.00     0.002 A 
HETATM   10  H   UNL     1      65.293   8.859   6.174  1.00  0.00     0.165 HD
ENDROOT
BRANCH   1  11
HETATM   11  C   UNL     1      61.633   9.885   3.611  1.00  0.00     0.154 C 
BRANCH  11  12
HETATM   12  C   UNL     1      61.886  11.313   3.188  1.00  0.00     0.177 C 
HETATM   13  O   UNL     1      62.064  11.747   2.061  1.00  0.00    -0.648 OA
HETATM   14  O   UNL     1      61.833  12.174   4.229  1.00  0.00    -0.648 OA
ENDBRANCH  11  12
ENDBRANCH   1  11
TORSDOF 2
ENDMDL
MODEL 4
REMARK VINA RESULT:      -5.0      2.645      4.606
REMARK  2 active torsions:
REMARK  status: ('A' for Active; 'I' for Inactive)
REMARK    1  A    between atoms: C_1  and  C_5 
REMARK    2  A    between atoms: C_5  and  C_7 
ROOT
HETATM    1  C   UNL     1      61.868   8.664   3.418  1.00  0.00    -0.020 A 
HETATM    2  N   UNL     1      61.005   7.032   4.671  1.00  0.00    -0.365 N 
HETATM    3  C   UNL     1      60.728   7.924   3.671  1.00  0.00     0.097 A 
HETATM    4  C   UNL     1      62.868   8.209   4.340  1.00  0.00    -0.001 A 
HETATM    5  C   UNL     1      62.299   7.191   5.106  1.00  0.00     0.042 A 
HETATM    6  C   UNL     1      64.207   8.568   4.595  1.00  0.00     0.014 A 
HETATM    7  C   UNL     1      62.999   6.513   6.112  1.00  0.00     0.030 A 
HETATM    8  C   UNL     1      64.920   7.908   5.605  1.00  0.00     0.001 A 
HETATM    9  C   UNL     1      64.322   6.895   6.349  1.00  0.00     0.002 A 
HETATM   10  H   UNL     1      60.369   6.371   5.027  1.00  0.00     0.165 HD
ENDROOT
BRANCH   1  11
HETATM   11  C   UNL     1      62.016   9.735   2.384  1.00  0.00     0.154 C 
BRANCH  11  12
HETATM   12  C   UNL     1      61.863  11.121   2.967  1.00  0.00     0.177 C 
HETATM   13  O   UNL     1      61.761  11.439   4.141  1.00  0.00    -0.648 OA
HETATM   14  O   UNL     1      61.915  12.085   2.021  1.00  0.00    -0.648 OA
ENDBRANCH  11  12
ENDBRANCH   1  11
TORSDOF 2
ENDMDL
MODEL 5
REMARK VINA RESULT:      -4.9      2.543      4.263
REMARK  2 active torsions:
REMARK  status: ('A' for Active; 'I' for Inactive)
REMARK    1  A    between atoms: C_1  and  C_5 
REMARK    2  A    between atoms: C_5  and  C_7 
ROOT
HETATM    1  C   UNL     1      62.396   8.578   3.292  1.00  0.00    -0.020 A 
HETATM    2  N   UNL     1      63.322   6.819   2.280  1.00  0.00    -0.365 N 
HETATM    3  C   UNL     1      62.243   7.662   2.269  1.00  0.00     0.097 A 
HETATM    4  C   UNL     1      63.615   8.242   3.969  1.00  0.00    -0.001 A 
HETATM    5  C   UNL     1      64.168   7.142   3.313  1.00  0.00     0.042 A 
HETATM    6  C   UNL     1      64.301   8.772   5.081  1.00  0.00     0.014 A 
HETATM    7  C   UNL     1      65.372   6.545   3.709  1.00  0.00     0.030 A 
HETATM    8  C   UNL     1      65.502   8.182   5.498  1.00  0.00     0.001 A 
HETATM    9  C   UNL     1      66.027   7.086   4.819  1.00  0.00     0.002 A 
HETATM   10  H   UNL     1      63.470   6.087   1.639  1.00  0.00     0.165 HD
ENDROOT
BRANCH   1  11
HETATM   11  C   UNL     1      61.459   9.696   3.625  1.00  0.00     0.154 C 
BRANCH  11  12
HETATM   12  C   UNL     1      61.866  10.999   2.977  1.00  0.00     0.177 C 
HETATM   13  O   UNL     1      62.020  11.236   1.790  1.00  0.00    -0.648 OA
HETATM   14  O   UNL     1      61.998  12.000   3.876  1.00  0.00    -0.648 OA
ENDBRANCH  11  12
ENDBRANCH   1  11
TORSDOF 2
ENDMDL
MODEL 6
REMARK VINA RESULT:      -4.8      1.495      1.876
REMARK  2 active torsions:
REMARK  status: ('A' for Active; 'I' for Inactive)
REMARK    1  A    between atoms: C_1  and  C_5 
REMARK    2  A    between atoms: C_5  and  C_7 
ROOT
HETATM    1  C   UNL     1      65.052   7.964   4.896  1.00  0.00    -0.020 A 
HETATM    2  N   UNL     1      63.873   7.182   3.170  1.00  0.00    -0.365 N 
HETATM    3  C   UNL     1      64.962   6.946   3.965  1.00  0.00     0.097 A 
HETATM    4  C   UNL     1      63.976   8.872   4.619  1.00  0.00    -0.001 A 
HETATM    5  C   UNL     1      63.260   8.355   3.538  1.00  0.00     0.042 A 
HETATM    6  C   UNL     1      63.544  10.087   5.187  1.00  0.00     0.014 A 
HETATM    7  C   UNL     1      62.134   8.989   2.998  1.00  0.00     0.030 A 
HETATM    8  C   UNL     1      62.425  10.741   4.654  1.00  0.00     0.001 A 
HETATM    9  C   UNL     1      61.732  10.197   3.576  1.00  0.00     0.002 A 
HETATM   10  H   UNL     1      63.573   6.594   2.440  1.00  0.00     0.165 HD
ENDROOT
BRANCH   1  11
HETATM   11  C   UNL     1      66.081   8.089   5.974  1.00  0.00     0.154 C 
BRANCH  11  12
HETATM   12  C   UNL     1      65.975   6.985   7.001  1.00  0.00     0.177 C 
HETATM   13  O   UNL     1      66.842   6.207   7.365  1.00  0.00    -0.648 OA
HETATM   14  O   UNL     1      64.761   6.952   7.595  1.00  0.00    -0.648 OA
ENDBRANCH  11  12
ENDBRANCH   1  11
TORSDOF 2
ENDMDL
MODEL 7
REMARK VINA RESULT:      -4.8      1.713      1.983
REMARK  2 active torsions:
REMARK  status: ('A' for Active; 'I' for Inactive)
REMARK    1  A    between atoms: C_1  and  C_5 
REMARK    2  A    between atoms: C_5  and  C_7 
ROOT
HETATM    1  C   UNL     1      62.971   7.582   3.605  1.00  0.00    -0.020 A 
HETATM    2  N   UNL     1      62.530   7.881   1.439  1.00  0.00    -0.365 N 
HETATM    3  C   UNL     1      62.954   6.969   2.367  1.00  0.00     0.097 A 
HETATM    4  C   UNL     1      62.566   8.942   3.398  1.00  0.00    -0.001 A 
HETATM    5  C   UNL     1      62.298   9.096   2.037  1.00  0.00     0.042 A 
HETATM    6  C   UNL     1      62.401  10.060   4.242  1.00  0.00     0.014 A 
HETATM    7  C   UNL     1      61.872  10.308   1.478  1.00  0.00     0.030 A 
HETATM    8  C   UNL     1      61.986  11.282   3.698  1.00  0.00     0.001 A 
HETATM    9  C   UNL     1      61.726  11.401   2.336  1.00  0.00     0.002 A 
HETATM   10  H   UNL     1      62.409   7.694   0.480  1.00  0.00     0.165 HD
ENDROOT
BRANCH   1  11
HETATM   11  C   UNL     1      63.348   6.942   4.905  1.00  0.00     0.154 C 
BRANCH  11  12
HETATM   12  C   UNL     1      62.308   7.165   5.978  1.00  0.00     0.177 C 
HETATM   13  O   UNL     1      62.442   7.721   7.056  1.00  0.00    -0.648 OA
HETATM   14  O   UNL     1      61.085   6.725   5.606  1.00  0.00    -0.648 OA
ENDBRANCH  11  12
ENDBRANCH   1  11
TORSDOF 2
ENDMDL
MODEL 8
REMARK VINA RESULT:      -4.5      2.342      3.038
REMARK  2 active torsions:
REMARK  status: ('A' for Active; 'I' for Inactive)
REMARK    1  A    between atoms: C_1  and  C_5 
REMARK    2  A    between atoms: C_5  and  C_7 
ROOT
HETATM    1  C   UNL     1      63.524   7.749   4.084  1.00  0.00    -0.020 A 
HETATM    2  N   UNL     1      63.211   9.405   5.546  1.00  0.00    -0.365 N 
HETATM    3  C   UNL     1      63.677   8.126   5.405  1.00  0.00     0.097 A 
HETATM    4  C   UNL     1      62.903   8.852   3.410  1.00  0.00    -0.001 A 
HETATM    5  C   UNL     1      62.722   9.868   4.349  1.00  0.00     0.042 A 
HETATM    6  C   UNL     1      62.477   9.083   2.085  1.00  0.00     0.014 A 
HETATM    7  C   UNL     1      62.139  11.102   4.033  1.00  0.00     0.030 A 
HETATM    8  C   UNL     1      61.882  10.307   1.753  1.00  0.00     0.001 A 
HETATM    9  C   UNL     1      61.719  11.301   2.714  1.00  0.00     0.002 A 
HETATM   10  H   UNL     1      63.224   9.919   6.386  1.00  0.00     0.165 HD
ENDROOT
BRANCH   1  11
HETATM   11  C   UNL     1      63.925   6.438   3.485  1.00  0.00     0.154 C 
BRANCH  11  12
HETATM   12  C   UNL     1      63.097   5.289   4.011  1.00  0.00     0.177 C 
HETATM   13  O   UNL     1      63.468   4.326   4.662  1.00  0.00    -0.648 OA
HETATM   14  O   UNL     1      61.780   5.442   3.747  1.00  0.00    -0.648 OA
ENDBRANCH  11  12
ENDBRANCH   1  11
TORSDOF 2
ENDMDL
MODEL 9
REMARK VINA RESULT:      -4.5      2.964      5.764
REMARK  2 active torsions:
REMARK  status: ('A' for Active; 'I' for Inactive)
REMARK    1  A    between atoms: C_1  and  C_5 
REMARK    2  A    between atoms: C_5  and  C_7 
ROOT
HETATM    1  C   UNL     1      65.508   6.926   4.866  1.00  0.00    -0.020 A 
HETATM    2  N   UNL     1      67.621   6.223   4.726  1.00  0.00    -0.365 N 
HETATM    3  C   UNL     1      66.548   6.656   3.996  1.00  0.00     0.097 A 
HETATM    4  C   UNL     1      65.978   6.605   6.182  1.00  0.00    -0.001 A 
HETATM    5  C   UNL     1      67.298   6.170   6.061  1.00  0.00     0.042 A 
HETATM    6  C   UNL     1      65.403   6.643   7.469  1.00  0.00     0.014 A 
HETATM    7  C   UNL     1      68.073   5.774   7.159  1.00  0.00     0.030 A 
HETATM    8  C   UNL     1      66.160   6.241   8.578  1.00  0.00     0.001 A 
HETATM    9  C   UNL     1      67.475   5.814   8.421  1.00  0.00     0.002 A 
HETATM   10  H   UNL     1      68.498   5.984   4.349  1.00  0.00     0.165 HD
ENDROOT
BRANCH   1  11
HETATM   11  C   UNL     1      64.155   7.446   4.494  1.00  0.00     0.154 C 
BRANCH  11  12
HETATM   12  C   UNL     1      63.995   8.913   4.816  1.00  0.00     0.177 C 
HETATM   13  O   UNL     1      64.673   9.601   5.562  1.00  0.00    -0.648 OA
HETATM   14  O   UNL     1      62.996   9.488   4.109  1.00  0.00    -0.648 OA
ENDBRANCH  11  12
ENDBRANCH   1  11
TORSDOF 2
ENDMDL
