MODEL 1
REMARK VINA RESULT:      -3.9      0.000      0.000
REMARK  0 active torsions:
REMARK  status: ('A' for Active; 'I' for Inactive)
ROOT
HETATM    1  N   UNL     1      62.891   8.053   2.316  1.00  0.00    -0.066 N 
HETATM    2  C   UNL     1      61.795   8.724   1.596  1.00  0.00     0.195 C 
HETATM    3  C   UNL     1      62.431   8.100   3.718  1.00  0.00     0.195 C 
HETATM    4  C   UNL     1      62.013  10.538   3.328  1.00  0.00     0.131 C 
HETATM    5  C   UNL     1      61.945  10.231   1.846  1.00  0.00     0.111 C 
HETATM    6  C   UNL     1      62.685   9.522   4.226  1.00  0.00     0.111 C 
HETATM    7  C   UNL     1      60.927   7.789   3.650  1.00  0.00     0.036 C 
HETATM    8  C   UNL     1      60.519   8.160   2.225  1.00  0.00     0.036 C 
HETATM    9  O   UNL     1      61.626  11.625   3.762  1.00  0.00    -0.298 OA
HETATM   10  C   UNL     1      63.140   6.687   1.855  1.00  0.00     0.270 C 
HETATM   11  H   UNL     1      63.793   8.508   2.168  1.00  0.00     0.280 HD
ENDROOT
TORSDOF 0
ENDMDL
MODEL 2
REMARK VINA RESULT:      -3.9      6.312      7.273
REMARK  0 active torsions:
REMARK  status: ('A' for Active; 'I' for Inactive)
ROOT
HETATM    1  N   UNL     1      66.676   4.801   6.811  1.00  0.00    -0.066 N 
HETATM    2  C   UNL     1      65.711   5.460   7.709  1.00  0.00     0.195 C 
HETATM    3  C   UNL     1      67.879   5.646   6.955  1.00  0.00     0.195 C 
HETATM    4  C   UNL     1      66.360   7.593   6.540  1.00  0.00     0.131 C 
HETATM    5  C   UNL     1      65.207   6.717   6.988  1.00  0.00     0.111 C 
HETATM    6  C   UNL     1      67.642   6.907   6.120  1.00  0.00     0.111 C 
HETATM    7  C   UNL     1      67.954   5.971   8.455  1.00  0.00     0.036 C 
HETATM    8  C   UNL     1      66.522   5.801   8.961  1.00  0.00     0.036 C 
HETATM    9  O   UNL     1      66.214   8.812   6.425  1.00  0.00    -0.298 OA
HETATM   10  C   UNL     1      66.931   3.402   7.156  1.00  0.00     0.270 C 
HETATM   11  H   UNL     1      66.336   4.737   5.851  1.00  0.00     0.280 HD
ENDROOT
TORSDOF 0
ENDMDL
MODEL 3
REMARK VINA RESULT:      -3.9      1.284      2.493
REMARK  0 active torsions:
REMARK  status: ('A' for Active; 'I' for Inactive)
ROOT
HETATM    1  N   UNL     1      61.052   8.063   3.631  1.00  0.00    -0.066 N 
HETATM    2  C   UNL     1      62.075   8.888   4.296  1.00  0.00     0.195 C 
HETATM    3  C   UNL     1      61.577   7.944   2.256  1.00  0.00     0.195 C 
HETATM    4  C   UNL     1      61.849  10.433   2.321  1.00  0.00     0.131 C 
HETATM    5  C   UNL     1      61.861  10.335   3.833  1.00  0.00     0.111 C 
HETATM    6  C   UNL     1      61.274   9.267   1.546  1.00  0.00     0.111 C 
HETATM    7  C   UNL     1      63.089   7.733   2.429  1.00  0.00     0.036 C 
HETATM    8  C   UNL     1      63.408   8.318   3.804  1.00  0.00     0.036 C 
HETATM    9  O   UNL     1      62.200  11.471   1.756  1.00  0.00    -0.298 OA
HETATM   10  C   UNL     1      60.851   6.760   4.267  1.00  0.00     0.270 C 
HETATM   11  H   UNL     1      60.122   8.480   3.677  1.00  0.00     0.280 HD
ENDROOT
TORSDOF 0
ENDMDL
MODEL 4
REMARK VINA RESULT:      -3.8      1.722      2.826
REMARK  0 active torsions:
REMARK  status: ('A' for Active; 'I' for Inactive)
ROOT
HETATM    1  N   UNL     1      61.022   8.231   3.849  1.00  0.00    -0.066 N 
HETATM    2  C   UNL     1      62.202   7.353   3.937  1.00  0.00     0.195 C 
HETATM    3  C   UNL     1      61.579   9.460   3.250  1.00  0.00     0.195 C 
HETATM    4  C   UNL     1      63.353   9.318   5.011  1.00  0.00     0.131 C 
HETATM    5  C   UNL     1      63.040   7.840   5.127  1.00  0.00     0.111 C 
HETATM    6  C   UNL     1      62.313  10.208   4.366  1.00  0.00     0.111 C 
HETATM    7  C   UNL     1      62.553   8.966   2.169  1.00  0.00     0.036 C 
HETATM    8  C   UNL     1      62.928   7.549   2.604  1.00  0.00     0.036 C 
HETATM    9  O   UNL     1      64.374   9.785   5.521  1.00  0.00    -0.298 OA
HETATM   10  C   UNL     1      59.934   7.664   3.050  1.00  0.00     0.270 C 
HETATM   11  H   UNL     1      60.579   8.384   4.755  1.00  0.00     0.280 HD
ENDROOT
TORSDOF 0
ENDMDL
MODEL 5
REMARK VINA RESULT:      -3.8      6.942      7.972
REMARK  0 active torsions:
REMARK  status: ('A' for Active; 'I' for Inactive)
ROOT
HETATM    1  N   UNL     1      67.853   6.774   6.503  1.00  0.00    -0.066 N 
HETATM    2  C   UNL     1      66.894   6.986   7.601  1.00  0.00     0.195 C 
HETATM    3  C   UNL     1      67.422   5.476   5.946  1.00  0.00     0.195 C 
HETATM    4  C   UNL     1      67.461   4.637   8.305  1.00  0.00     0.131 C 
HETATM    5  C   UNL     1      67.323   6.075   8.759  1.00  0.00     0.111 C 
HETATM    6  C   UNL     1      67.941   4.389   6.891  1.00  0.00     0.111 C 
HETATM    7  C   UNL     1      65.887   5.536   5.948  1.00  0.00     0.036 C 
HETATM    8  C   UNL     1      65.541   6.574   7.016  1.00  0.00     0.036 C 
HETATM    9  O   UNL     1      67.287   3.708   9.098  1.00  0.00    -0.298 OA
HETATM   10  C   UNL     1      67.840   7.843   5.504  1.00  0.00     0.270 C 
HETATM   11  H   UNL     1      68.822   6.778   6.823  1.00  0.00     0.280 HD
ENDROOT
TORSDOF 0
ENDMDL
MODEL 6
REMARK VINA RESULT:      -3.7      5.899      6.992
REMARK  0 active torsions:
REMARK  status: ('A' for Active; 'I' for Inactive)
ROOT
HETATM    1  N   UNL     1      65.421   7.442   6.356  1.00  0.00    -0.066 N 
HETATM    2  C   UNL     1      65.399   6.046   5.883  1.00  0.00     0.195 C 
HETATM    3  C   UNL     1      66.790   7.578   6.894  1.00  0.00     0.195 C 
HETATM    4  C   UNL     1      66.332   5.457   8.145  1.00  0.00     0.131 C 
HETATM    5  C   UNL     1      65.259   5.151   7.120  1.00  0.00     0.111 C 
HETATM    6  C   UNL     1      66.803   6.891   8.262  1.00  0.00     0.111 C 
HETATM    7  C   UNL     1      67.684   6.838   5.885  1.00  0.00     0.036 C 
HETATM    8  C   UNL     1      66.747   5.856   5.184  1.00  0.00     0.036 C 
HETATM    9  O   UNL     1      66.725   4.585   8.922  1.00  0.00    -0.298 OA
HETATM   10  C   UNL     1      65.134   8.418   5.304  1.00  0.00     0.270 C 
HETATM   11  H   UNL     1      64.693   7.633   7.044  1.00  0.00     0.280 HD
ENDROOT
TORSDOF 0
ENDMDL
MODEL 7
REMARK VINA RESULT:      -3.6      1.549      2.058
REMARK  0 active torsions:
REMARK  status: ('A' for Active; 'I' for Inactive)
ROOT
HETATM    1  N   UNL     1      63.349   7.892   3.156  1.00  0.00    -0.066 N 
HETATM    2  C   UNL     1      62.000   8.397   3.465  1.00  0.00     0.195 C 
HETATM    3  C   UNL     1      63.897   7.596   4.496  1.00  0.00     0.195 C 
HETATM    4  C   UNL     1      63.143   9.898   5.131  1.00  0.00     0.131 C 
HETATM    5  C   UNL     1      62.161   9.833   3.979  1.00  0.00     0.111 C 
HETATM    6  C   UNL     1      64.309   8.934   5.115  1.00  0.00     0.111 C 
HETATM    7  C   UNL     1      62.730   6.957   5.266  1.00  0.00     0.036 C 
HETATM    8  C   UNL     1      61.475   7.453   4.549  1.00  0.00     0.036 C 
HETATM    9  O   UNL     1      63.045  10.777   5.991  1.00  0.00    -0.298 OA
HETATM   10  C   UNL     1      63.345   6.717   2.283  1.00  0.00     0.270 C 
HETATM   11  H   UNL     1      63.907   8.563   2.628  1.00  0.00     0.280 HD
ENDROOT
TORSDOF 0
ENDMDL
MODEL 8
REMARK VINA RESULT:      -3.5     12.141     13.341
REMARK  0 active torsions:
REMARK  status: ('A' for Active; 'I' for Inactive)
ROOT
HETATM    1  N   UNL     1      58.360   0.212  12.147  1.00  0.00    -0.066 N 
HETATM    2  C   UNL     1      57.497   0.232  13.341  1.00  0.00     0.195 C 
HETATM    3  C   UNL     1      58.989   1.547  12.181  1.00  0.00     0.195 C 
HETATM    4  C   UNL     1      56.673   2.450  12.482  1.00  0.00     0.131 C 
HETATM    5  C   UNL     1      56.268   1.084  12.997  1.00  0.00     0.111 C 
HETATM    6  C   UNL     1      57.947   2.546  11.671  1.00  0.00     0.111 C 
HETATM    7  C   UNL     1      59.320   1.789  13.663  1.00  0.00     0.036 C 
HETATM    8  C   UNL     1      58.359   0.879  14.428  1.00  0.00     0.036 C 
HETATM    9  O   UNL     1      55.930   3.423  12.633  1.00  0.00    -0.298 OA
HETATM   10  C   UNL     1      59.345  -0.871  12.159  1.00  0.00     0.270 C 
HETATM   11  H   UNL     1      57.837   0.030  11.290  1.00  0.00     0.280 HD
ENDROOT
TORSDOF 0
ENDMDL
MODEL 9
REMARK VINA RESULT:      -3.4      2.077      2.839
REMARK  0 active torsions:
REMARK  status: ('A' for Active; 'I' for Inactive)
ROOT
HETATM    1  N   UNL     1      62.871   7.183   3.011  1.00  0.00    -0.066 N 
HETATM    2  C   UNL     1      63.174   8.547   3.477  1.00  0.00     0.195 C 
HETATM    3  C   UNL     1      61.600   6.883   3.701  1.00  0.00     0.195 C 
HETATM    4  C   UNL     1      62.742   7.656   5.791  1.00  0.00     0.131 C 
HETATM    5  C   UNL     1      63.705   8.428   4.912  1.00  0.00     0.111 C 
HETATM    6  C   UNL     1      61.949   6.537   5.151  1.00  0.00     0.111 C 
HETATM    7  C   UNL     1      60.787   8.184   3.615  1.00  0.00     0.036 C 
HETATM    8  C   UNL     1      61.833   9.282   3.419  1.00  0.00     0.036 C 
HETATM    9  O   UNL     1      62.692   7.869   7.005  1.00  0.00    -0.298 OA
HETATM   10  C   UNL     1      62.755   7.077   1.556  1.00  0.00     0.270 C 
HETATM   11  H   UNL     1      63.616   6.521   3.226  1.00  0.00     0.280 HD
ENDROOT
TORSDOF 0
ENDMDL
