MODEL 1
REMARK VINA RESULT:      -4.8      0.000      0.000
REMARK  1 active torsions:
REMARK  status: ('A' for Active; 'I' for Inactive)
REMARK    1  A    between atoms: C_1  and  C_3 
ROOT
HETATM    1  C   UNL     1      62.122   9.500   3.286  1.00  0.00     0.052 C 
HETATM    2  C   UNL     1      62.621   8.810   1.980  1.00  0.00     0.027 C 
HETATM    3  C   UNL     1      61.610   9.000   0.861  1.00  0.00    -0.024 C 
HETATM    4  C   UNL     1      60.529   8.264   1.161  1.00  0.00    -0.026 C 
HETATM    5  C   UNL     1      60.799   8.706   3.566  1.00  0.00     0.029 C 
HETATM    6  C   UNL     1      60.813   7.597   2.485  1.00  0.00     0.010 C 
HETATM    7  C   UNL     1      62.309   7.338   2.282  1.00  0.00     0.018 C 
HETATM    8  C   UNL     1      63.119   9.332   4.445  1.00  0.00     0.027 C 
ENDROOT
BRANCH   1   9
HETATM    9  C   UNL     1      61.935  10.992   3.091  1.00  0.00     0.182 C 
HETATM   10  O   UNL     1      62.049  11.607   2.041  1.00  0.00    -0.647 OA
HETATM   11  O   UNL     1      61.768  11.667   4.246  1.00  0.00    -0.647 OA
ENDBRANCH   1   9
TORSDOF 1
ENDMDL
MODEL 2
REMARK VINA RESULT:      -4.8      5.938      7.684
REMARK  1 active torsions:
REMARK  status: ('A' for Active; 'I' for Inactive)
REMARK    1  A    between atoms: C_1  and  C_3 
ROOT
HETATM    1  C   UNL     1      66.400   6.568   6.371  1.00  0.00     0.052 C 
HETATM    2  C   UNL     1      65.960   6.324   7.847  1.00  0.00     0.027 C 
HETATM    3  C   UNL     1      67.054   6.765   8.806  1.00  0.00    -0.024 C 
HETATM    4  C   UNL     1      68.075   5.904   8.681  1.00  0.00    -0.026 C 
HETATM    5  C   UNL     1      67.661   5.641   6.271  1.00  0.00     0.029 C 
HETATM    6  C   UNL     1      67.668   4.899   7.630  1.00  0.00     0.010 C 
HETATM    7  C   UNL     1      66.179   4.811   7.978  1.00  0.00     0.018 C 
HETATM    8  C   UNL     1      65.319   6.135   5.367  1.00  0.00     0.027 C 
ENDROOT
BRANCH   1   9
HETATM    9  C   UNL     1      66.672   8.037   6.107  1.00  0.00     0.182 C 
HETATM   10  O   UNL     1      65.912   8.966   6.330  1.00  0.00    -0.647 OA
HETATM   11  O   UNL     1      67.818   8.257   5.432  1.00  0.00    -0.647 OA
ENDBRANCH   1   9
TORSDOF 1
ENDMDL
MODEL 3
REMARK VINA RESULT:      -4.5      6.213      7.204
REMARK  1 active torsions:
REMARK  status: ('A' for Active; 'I' for Inactive)
REMARK    1  A    between atoms: C_1  and  C_3 
ROOT
HETATM    1  C   UNL     1      66.579   6.462   7.378  1.00  0.00     0.052 C 
HETATM    2  C   UNL     1      67.826   6.041   6.543  1.00  0.00     0.027 C 
HETATM    3  C   UNL     1      67.413   5.655   5.132  1.00  0.00    -0.024 C 
HETATM    4  C   UNL     1      66.735   4.501   5.208  1.00  0.00    -0.026 C 
HETATM    5  C   UNL     1      65.741   5.136   7.367  1.00  0.00     0.029 C 
HETATM    6  C   UNL     1      66.684   4.124   6.670  1.00  0.00     0.010 C 
HETATM    7  C   UNL     1      68.075   4.622   7.071  1.00  0.00     0.018 C 
HETATM    8  C   UNL     1      66.955   6.861   8.815  1.00  0.00     0.027 C 
ENDROOT
BRANCH   1   9
HETATM    9  C   UNL     1      65.877   7.659   6.767  1.00  0.00     0.182 C 
HETATM   10  O   UNL     1      66.363   8.763   6.572  1.00  0.00    -0.647 OA
HETATM   11  O   UNL     1      64.557   7.466   6.574  1.00  0.00    -0.647 OA
ENDBRANCH   1   9
TORSDOF 1
ENDMDL
MODEL 4
REMARK VINA RESULT:      -4.5      2.901      3.794
REMARK  1 active torsions:
REMARK  status: ('A' for Active; 'I' for Inactive)
REMARK    1  A    between atoms: C_1  and  C_3 
ROOT
HETATM    1  C   UNL     1      62.745   7.113   4.752  1.00  0.00     0.052 C 
HETATM    2  C   UNL     1      63.512   8.282   4.063  1.00  0.00     0.027 C 
HETATM    3  C   UNL     1      62.925   9.620   4.482  1.00  0.00    -0.024 C 
HETATM    4  C   UNL     1      61.710   9.724   3.922  1.00  0.00    -0.026 C 
HETATM    5  C   UNL     1      61.300   7.312   4.177  1.00  0.00     0.029 C 
HETATM    6  C   UNL     1      61.482   8.451   3.143  1.00  0.00     0.010 C 
HETATM    7  C   UNL     1      62.916   8.238   2.650  1.00  0.00     0.018 C 
HETATM    8  C   UNL     1      63.311   5.739   4.355  1.00  0.00     0.027 C 
ENDROOT
BRANCH   1   9
HETATM    9  C   UNL     1      62.842   7.198   6.264  1.00  0.00     0.182 C 
HETATM   10  O   UNL     1      63.862   7.349   6.918  1.00  0.00    -0.647 OA
HETATM   11  O   UNL     1      61.678   6.934   6.891  1.00  0.00    -0.647 OA
ENDBRANCH   1   9
TORSDOF 1
ENDMDL
MODEL 5
REMARK VINA RESULT:      -4.4      1.384      3.142
REMARK  1 active torsions:
REMARK  status: ('A' for Active; 'I' for Inactive)
REMARK    1  A    between atoms: C_1  and  C_3 
ROOT
HETATM    1  C   UNL     1      62.013   8.763   3.595  1.00  0.00     0.052 C 
HETATM    2  C   UNL     1      62.567   8.531   5.034  1.00  0.00     0.027 C 
HETATM    3  C   UNL     1      63.981   9.076   5.151  1.00  0.00    -0.024 C 
HETATM    4  C   UNL     1      64.783   8.288   4.420  1.00  0.00    -0.026 C 
HETATM    5  C   UNL     1      63.025   7.926   2.738  1.00  0.00     0.029 C 
HETATM    6  C   UNL     1      63.903   7.226   3.805  1.00  0.00     0.010 C 
HETATM    7  C   UNL     1      62.933   7.042   4.976  1.00  0.00     0.018 C 
HETATM    8  C   UNL     1      60.581   8.225   3.435  1.00  0.00     0.027 C 
ENDROOT
BRANCH   1   9
HETATM    9  C   UNL     1      61.961  10.239   3.250  1.00  0.00     0.182 C 
HETATM   10  O   UNL     1      61.724  11.156   4.021  1.00  0.00    -0.647 OA
HETATM   11  O   UNL     1      62.052  10.483   1.927  1.00  0.00    -0.647 OA
ENDBRANCH   1   9
TORSDOF 1
ENDMDL
MODEL 6
REMARK VINA RESULT:      -4.4      4.472      6.176
REMARK  1 active torsions:
REMARK  status: ('A' for Active; 'I' for Inactive)
REMARK    1  A    between atoms: C_1  and  C_3 
ROOT
HETATM    1  C   UNL     1      65.407   7.155   5.102  1.00  0.00     0.052 C 
HETATM    2  C   UNL     1      65.430   5.914   6.045  1.00  0.00     0.027 C 
HETATM    3  C   UNL     1      66.032   6.283   7.392  1.00  0.00    -0.024 C 
HETATM    4  C   UNL     1      67.341   6.507   7.204  1.00  0.00    -0.026 C 
HETATM    5  C   UNL     1      66.937   7.475   4.979  1.00  0.00     0.029 C 
HETATM    6  C   UNL     1      67.609   6.301   5.732  1.00  0.00     0.010 C 
HETATM    7  C   UNL     1      66.636   5.142   5.495  1.00  0.00     0.018 C 
HETATM    8  C   UNL     1      64.803   6.822   3.726  1.00  0.00     0.027 C 
ENDROOT
BRANCH   1   9
HETATM    9  C   UNL     1      64.569   8.279   5.680  1.00  0.00     0.182 C 
HETATM   10  O   UNL     1      63.370   8.245   5.910  1.00  0.00    -0.647 OA
HETATM   11  O   UNL     1      65.240   9.442   5.797  1.00  0.00    -0.647 OA
ENDBRANCH   1   9
TORSDOF 1
ENDMDL
MODEL 7
REMARK VINA RESULT:      -4.4      2.727      3.639
REMARK  1 active torsions:
REMARK  status: ('A' for Active; 'I' for Inactive)
REMARK    1  A    between atoms: C_1  and  C_3 
ROOT
HETATM    1  C   UNL     1      63.388   7.901   4.685  1.00  0.00     0.052 C 
HETATM    2  C   UNL     1      62.120   8.659   4.187  1.00  0.00     0.027 C 
HETATM    3  C   UNL     1      61.027   7.673   3.809  1.00  0.00    -0.024 C 
HETATM    4  C   UNL     1      61.420   7.039   2.694  1.00  0.00    -0.026 C 
HETATM    5  C   UNL     1      63.774   7.077   3.407  1.00  0.00     0.029 C 
HETATM    6  C   UNL     1      62.779   7.592   2.337  1.00  0.00     0.010 C 
HETATM    7  C   UNL     1      62.541   9.044   2.763  1.00  0.00     0.018 C 
HETATM    8  C   UNL     1      64.520   8.865   5.079  1.00  0.00     0.027 C 
ENDROOT
BRANCH   1   9
HETATM    9  C   UNL     1      63.090   7.061   5.912  1.00  0.00     0.182 C 
HETATM   10  O   UNL     1      63.069   5.841   5.968  1.00  0.00    -0.647 OA
HETATM   11  O   UNL     1      62.678   7.787   6.970  1.00  0.00    -0.647 OA
ENDBRANCH   1   9
TORSDOF 1
ENDMDL
MODEL 8
REMARK VINA RESULT:      -4.3      3.953      4.905
REMARK  1 active torsions:
REMARK  status: ('A' for Active; 'I' for Inactive)
REMARK    1  A    between atoms: C_1  and  C_3 
ROOT
HETATM    1  C   UNL     1      65.475   7.004   5.306  1.00  0.00     0.052 C 
HETATM    2  C   UNL     1      64.502   7.342   4.136  1.00  0.00     0.027 C 
HETATM    3  C   UNL     1      63.779   8.651   4.410  1.00  0.00    -0.024 C 
HETATM    4  C   UNL     1      62.924   8.439   5.421  1.00  0.00    -0.026 C 
HETATM    5  C   UNL     1      64.474   6.868   6.506  1.00  0.00     0.029 C 
HETATM    6  C   UNL     1      63.087   6.995   5.830  1.00  0.00     0.010 C 
HETATM    7  C   UNL     1      63.330   6.401   4.439  1.00  0.00     0.018 C 
HETATM    8  C   UNL     1      66.228   5.685   5.067  1.00  0.00     0.027 C 
ENDROOT
BRANCH   1   9
HETATM    9  C   UNL     1      66.531   8.078   5.482  1.00  0.00     0.182 C 
HETATM   10  O   UNL     1      67.506   8.260   4.769  1.00  0.00    -0.647 OA
HETATM   11  O   UNL     1      66.402   8.775   6.629  1.00  0.00    -0.647 OA
ENDBRANCH   1   9
TORSDOF 1
ENDMDL
MODEL 9
REMARK VINA RESULT:      -4.3     13.106     14.276
REMARK  1 active torsions:
REMARK  status: ('A' for Active; 'I' for Inactive)
REMARK    1  A    between atoms: C_1  and  C_3 
ROOT
HETATM    1  C   UNL     1      56.703   1.025  13.107  1.00  0.00     0.052 C 
HETATM    2  C   UNL     1      57.676   0.706  14.282  1.00  0.00     0.027 C 
HETATM    3  C   UNL     1      58.784   1.744  14.349  1.00  0.00    -0.024 C 
HETATM    4  C   UNL     1      59.577   1.562  13.283  1.00  0.00    -0.026 C 
HETATM    5  C   UNL     1      57.666   0.917  11.874  1.00  0.00     0.029 C 
HETATM    6  C   UNL     1      58.990   0.412  12.499  1.00  0.00     0.010 C 
HETATM    7  C   UNL     1      58.509  -0.434  13.681  1.00  0.00     0.018 C 
HETATM    8  C   UNL     1      55.564  -0.004  13.005  1.00  0.00     0.027 C 
ENDROOT
BRANCH   1   9
HETATM    9  C   UNL     1      56.045   2.381  13.280  1.00  0.00     0.182 C 
HETATM   10  O   UNL     1      55.250   2.695  14.151  1.00  0.00    -0.647 OA
HETATM   11  O   UNL     1      56.295   3.231  12.263  1.00  0.00    -0.647 OA
ENDBRANCH   1   9
TORSDOF 1
ENDMDL
