MODEL 1
REMARK VINA RESULT:      -5.6      0.000      0.000
REMARK  1 active torsions:
REMARK  status: ('A' for Active; 'I' for Inactive)
REMARK    1  A    between atoms: C_1  and  C_7 
ROOT
HETATM    1  C   UNL     1      64.387   7.669   4.393  1.00  0.00    -0.026 A 
HETATM    2  C   UNL     1      64.082   6.920   3.275  1.00  0.00     0.096 A 
HETATM    3  N   UNL     1      63.134   7.600   2.551  1.00  0.00    -0.365 N 
HETATM    4  C   UNL     1      63.570   8.848   4.337  1.00  0.00    -0.001 A 
HETATM    5  C   UNL     1      62.820   8.790   3.167  1.00  0.00     0.042 A 
HETATM    6  C   UNL     1      63.423   9.967   5.184  1.00  0.00     0.014 A 
HETATM    7  C   UNL     1      61.943   9.815   2.785  1.00  0.00     0.030 A 
HETATM    8  C   UNL     1      62.556  10.998   4.821  1.00  0.00     0.001 A 
HETATM    9  C   UNL     1      61.833  10.924   3.636  1.00  0.00     0.002 A 
HETATM   10  H   UNL     1      62.735   7.281   1.710  1.00  0.00     0.165 HD
ENDROOT
BRANCH   1  11
HETATM   11  C   UNL     1      65.365   7.405   5.502  1.00  0.00     0.024 C 
HETATM   12  C   UNL     1      64.846   6.621   6.706  1.00  0.00     0.037 C 
HETATM   13  C   UNL     1      65.928   6.629   7.794  1.00  0.00     0.233 C 
HETATM   14  N   UNL     1      67.204   6.083   7.318  1.00  0.00    -0.075 N 
HETATM   15  C   UNL     1      67.687   6.732   6.100  1.00  0.00     0.233 C 
HETATM   16  H   UNL     1      67.903   6.207   8.052  1.00  0.00     0.277 HD
HETATM   17  H   UNL     1      67.051   5.098   7.099  1.00  0.00     0.277 HD
HETATM   18  C   UNL     1      66.638   6.717   4.994  1.00  0.00     0.037 C 
ENDBRANCH   1  11
TORSDOF 1
ENDMDL
MODEL 2
REMARK VINA RESULT:      -5.4      1.512      2.787
REMARK  1 active torsions:
REMARK  status: ('A' for Active; 'I' for Inactive)
REMARK    1  A    between atoms: C_1  and  C_7 
ROOT
HETATM    1  C   UNL     1      63.509   8.697   4.516  1.00  0.00    -0.026 A 
HETATM    2  C   UNL     1      63.033   9.911   4.969  1.00  0.00     0.096 A 
HETATM    3  N   UNL     1      62.235  10.450   3.990  1.00  0.00    -0.365 N 
HETATM    4  C   UNL     1      62.978   8.512   3.195  1.00  0.00    -0.001 A 
HETATM    5  C   UNL     1      62.168   9.606   2.905  1.00  0.00     0.042 A 
HETATM    6  C   UNL     1      63.110   7.490   2.232  1.00  0.00     0.014 A 
HETATM    7  C   UNL     1      61.459   9.717   1.701  1.00  0.00     0.030 A 
HETATM    8  C   UNL     1      62.412   7.582   1.027  1.00  0.00     0.001 A 
HETATM    9  C   UNL     1      61.595   8.677   0.771  1.00  0.00     0.002 A 
HETATM   10  H   UNL     1      61.777  11.319   4.055  1.00  0.00     0.165 HD
ENDROOT
BRANCH   1  11
HETATM   11  C   UNL     1      64.399   7.691   5.188  1.00  0.00     0.024 C 
HETATM   12  C   UNL     1      65.703   8.216   5.784  1.00  0.00     0.037 C 
HETATM   13  C   UNL     1      66.545   7.017   6.242  1.00  0.00     0.233 C 
HETATM   14  N   UNL     1      65.831   6.165   7.199  1.00  0.00    -0.075 N 
HETATM   15  C   UNL     1      64.523   5.727   6.714  1.00  0.00     0.233 C 
HETATM   16  H   UNL     1      66.401   5.340   7.387  1.00  0.00     0.277 HD
HETATM   17  H   UNL     1      65.674   6.719   8.042  1.00  0.00     0.277 HD
HETATM   18  C   UNL     1      63.657   6.902   6.274  1.00  0.00     0.037 C 
ENDBRANCH   1  11
TORSDOF 1
ENDMDL
MODEL 3
REMARK VINA RESULT:      -5.4      2.032      5.710
REMARK  1 active torsions:
REMARK  status: ('A' for Active; 'I' for Inactive)
REMARK    1  A    between atoms: C_1  and  C_7 
ROOT
HETATM    1  C   UNL     1      63.158   8.538   4.090  1.00  0.00    -0.026 A 
HETATM    2  C   UNL     1      63.213   9.532   5.045  1.00  0.00     0.096 A 
HETATM    3  N   UNL     1      64.406   9.416   5.716  1.00  0.00    -0.365 N 
HETATM    4  C   UNL     1      64.374   7.784   4.208  1.00  0.00    -0.001 A 
HETATM    5  C   UNL     1      65.142   8.370   5.210  1.00  0.00     0.042 A 
HETATM    6  C   UNL     1      64.888   6.660   3.527  1.00  0.00     0.014 A 
HETATM    7  C   UNL     1      66.418   7.899   5.550  1.00  0.00     0.030 A 
HETATM    8  C   UNL     1      66.156   6.176   3.852  1.00  0.00     0.001 A 
HETATM    9  C   UNL     1      66.910   6.793   4.844  1.00  0.00     0.002 A 
HETATM   10  H   UNL     1      64.692   9.999   6.455  1.00  0.00     0.165 HD
ENDROOT
BRANCH   1  11
HETATM   11  C   UNL     1      62.096   8.223   3.076  1.00  0.00     0.024 C 
HETATM   12  C   UNL     1      60.680   8.010   3.606  1.00  0.00     0.037 C 
HETATM   13  C   UNL     1      59.799   7.513   2.452  1.00  0.00     0.233 C 
HETATM   14  N   UNL     1      59.802   8.432   1.309  1.00  0.00    -0.075 N 
HETATM   15  C   UNL     1      61.148   8.753   0.835  1.00  0.00     0.233 C 
HETATM   16  H   UNL     1      59.282   8.001   0.544  1.00  0.00     0.277 HD
HETATM   17  H   UNL     1      59.372   9.305   1.618  1.00  0.00     0.277 HD
HETATM   18  C   UNL     1      62.038   9.272   1.959  1.00  0.00     0.037 C 
ENDBRANCH   1  11
TORSDOF 1
ENDMDL
MODEL 4
REMARK VINA RESULT:      -5.2      1.599      5.543
REMARK  1 active torsions:
REMARK  status: ('A' for Active; 'I' for Inactive)
REMARK    1  A    between atoms: C_1  and  C_7 
ROOT
HETATM    1  C   UNL     1      63.638   7.783   4.888  1.00  0.00    -0.026 A 
HETATM    2  C   UNL     1      62.929   7.051   5.817  1.00  0.00     0.096 A 
HETATM    3  N   UNL     1      63.828   6.377   6.607  1.00  0.00    -0.365 N 
HETATM    4  C   UNL     1      65.029   7.522   5.129  1.00  0.00    -0.001 A 
HETATM    5  C   UNL     1      65.117   6.665   6.221  1.00  0.00     0.042 A 
HETATM    6  C   UNL     1      66.219   7.962   4.512  1.00  0.00     0.014 A 
HETATM    7  C   UNL     1      66.346   6.243   6.748  1.00  0.00     0.030 A 
HETATM    8  C   UNL     1      67.452   7.554   5.022  1.00  0.00     0.001 A 
HETATM    9  C   UNL     1      67.512   6.713   6.127  1.00  0.00     0.002 A 
HETATM   10  H   UNL     1      63.584   5.774   7.345  1.00  0.00     0.165 HD
ENDROOT
BRANCH   1  11
HETATM   11  C   UNL     1      63.155   8.706   3.805  1.00  0.00     0.024 C 
HETATM   12  C   UNL     1      62.461   8.059   2.608  1.00  0.00     0.037 C 
HETATM   13  C   UNL     1      62.225   9.137   1.543  1.00  0.00     0.233 C 
HETATM   14  N   UNL     1      61.447  10.271   2.055  1.00  0.00    -0.075 N 
HETATM   15  C   UNL     1      62.017  10.855   3.269  1.00  0.00     0.233 C 
HETATM   16  H   UNL     1      61.410  10.992   1.334  1.00  0.00     0.277 HD
HETATM   17  H   UNL     1      60.518   9.920   2.293  1.00  0.00     0.277 HD
HETATM   18  C   UNL     1      62.240   9.807   4.354  1.00  0.00     0.037 C 
ENDBRANCH   1  11
TORSDOF 1
ENDMDL
MODEL 5
REMARK VINA RESULT:      -5.1      2.453      3.383
REMARK  1 active torsions:
REMARK  status: ('A' for Active; 'I' for Inactive)
REMARK    1  A    between atoms: C_1  and  C_7 
ROOT
HETATM    1  C   UNL     1      63.343   7.951   4.292  1.00  0.00    -0.026 A 
HETATM    2  C   UNL     1      63.437   8.431   5.583  1.00  0.00     0.096 A 
HETATM    3  N   UNL     1      62.973   9.724   5.593  1.00  0.00    -0.365 N 
HETATM    4  C   UNL     1      62.808   9.017   3.493  1.00  0.00    -0.001 A 
HETATM    5  C   UNL     1      62.563  10.098   4.334  1.00  0.00     0.042 A 
HETATM    6  C   UNL     1      62.497   9.138   2.122  1.00  0.00     0.014 A 
HETATM    7  C   UNL     1      61.995  11.294   3.874  1.00  0.00     0.030 A 
HETATM    8  C   UNL     1      61.931  10.321   1.645  1.00  0.00     0.001 A 
HETATM    9  C   UNL     1      61.678  11.379   2.511  1.00  0.00     0.002 A 
HETATM   10  H   UNL     1      62.939  10.301   6.390  1.00  0.00     0.165 HD
ENDROOT
BRANCH   1  11
HETATM   11  C   UNL     1      63.692   6.603   3.730  1.00  0.00     0.024 C 
HETATM   12  C   UNL     1      65.171   6.328   3.469  1.00  0.00     0.037 C 
HETATM   13  C   UNL     1      65.293   4.992   2.724  1.00  0.00     0.233 C 
HETATM   14  N   UNL     1      64.670   3.884   3.455  1.00  0.00    -0.075 N 
HETATM   15  C   UNL     1      63.279   4.149   3.824  1.00  0.00     0.233 C 
HETATM   16  H   UNL     1      64.697   3.050   2.867  1.00  0.00     0.277 HD
HETATM   17  H   UNL     1      65.196   3.756   4.321  1.00  0.00     0.277 HD
HETATM   18  C   UNL     1      63.134   5.461   4.587  1.00  0.00     0.037 C 
ENDBRANCH   1  11
TORSDOF 1
ENDMDL
MODEL 6
REMARK VINA RESULT:      -4.3      2.965      3.764
REMARK  1 active torsions:
REMARK  status: ('A' for Active; 'I' for Inactive)
REMARK    1  A    between atoms: C_1  and  C_7 
ROOT
HETATM    1  C   UNL     1      62.089   7.755   3.662  1.00  0.00    -0.026 A 
HETATM    2  C   UNL     1      61.710   8.583   2.624  1.00  0.00     0.096 A 
HETATM    3  N   UNL     1      60.339   8.562   2.540  1.00  0.00    -0.365 N 
HETATM    4  C   UNL     1      60.883   7.205   4.213  1.00  0.00    -0.001 A 
HETATM    5  C   UNL     1      59.809   7.745   3.512  1.00  0.00     0.042 A 
HETATM    6  C   UNL     1      60.622   6.302   5.266  1.00  0.00     0.014 A 
HETATM    7  C   UNL     1      58.477   7.445   3.830  1.00  0.00     0.030 A 
HETATM    8  C   UNL     1      59.303   5.991   5.598  1.00  0.00     0.001 A 
HETATM    9  C   UNL     1      58.248   6.560   4.893  1.00  0.00     0.002 A 
HETATM   10  H   UNL     1      59.810   9.061   1.876  1.00  0.00     0.165 HD
ENDROOT
BRANCH   1  11
HETATM   11  C   UNL     1      63.454   7.431   4.196  1.00  0.00     0.024 C 
HETATM   12  C   UNL     1      64.410   6.707   3.250  1.00  0.00     0.037 C 
HETATM   13  C   UNL     1      65.660   6.301   4.040  1.00  0.00     0.233 C 
HETATM   14  N   UNL     1      66.317   7.447   4.678  1.00  0.00    -0.075 N 
HETATM   15  C   UNL     1      65.410   8.238   5.510  1.00  0.00     0.233 C 
HETATM   16  H   UNL     1      67.077   7.101   5.264  1.00  0.00     0.277 HD
HETATM   17  H   UNL     1      66.657   8.057   3.933  1.00  0.00     0.277 HD
HETATM   18  C   UNL     1      64.168   8.674   4.741  1.00  0.00     0.037 C 
ENDBRANCH   1  11
TORSDOF 1
ENDMDL
MODEL 7
REMARK VINA RESULT:      -4.2     10.416     12.388
REMARK  1 active torsions:
REMARK  status: ('A' for Active; 'I' for Inactive)
REMARK    1  A    between atoms: C_1  and  C_7 
ROOT
HETATM    1  C   UNL     1      60.575   0.115  11.595  1.00  0.00    -0.026 A 
HETATM    2  C   UNL     1      60.366   0.299  10.243  1.00  0.00     0.096 A 
HETATM    3  N   UNL     1      61.543   0.032   9.588  1.00  0.00    -0.365 N 
HETATM    4  C   UNL     1      61.950  -0.267  11.752  1.00  0.00    -0.001 A 
HETATM    5  C   UNL     1      62.519  -0.336  10.484  1.00  0.00     0.042 A 
HETATM    6  C   UNL     1      62.748  -0.577  12.873  1.00  0.00     0.014 A 
HETATM    7  C   UNL     1      63.850  -0.726  10.279  1.00  0.00     0.030 A 
HETATM    8  C   UNL     1      64.074  -0.968  12.690  1.00  0.00     0.001 A 
HETATM    9  C   UNL     1      64.613  -1.047  11.411  1.00  0.00     0.002 A 
HETATM   10  H   UNL     1      61.670   0.097   8.614  1.00  0.00     0.165 HD
ENDROOT
BRANCH   1  11
HETATM   11  C   UNL     1      59.627   0.251  12.751  1.00  0.00     0.024 C 
HETATM   12  C   UNL     1      59.433   1.654  13.321  1.00  0.00     0.037 C 
HETATM   13  C   UNL     1      58.592   1.547  14.600  1.00  0.00     0.233 C 
HETATM   14  N   UNL     1      57.302   0.888  14.368  1.00  0.00    -0.075 N 
HETATM   15  C   UNL     1      57.433  -0.417  13.721  1.00  0.00     0.233 C 
HETATM   16  H   UNL     1      56.837   0.760  15.268  1.00  0.00     0.277 HD
HETATM   17  H   UNL     1      56.762   1.487  13.742  1.00  0.00     0.277 HD
HETATM   18  C   UNL     1      58.245  -0.334  12.434  1.00  0.00     0.037 C 
ENDBRANCH   1  11
TORSDOF 1
ENDMDL
MODEL 8
REMARK VINA RESULT:      -4.2      4.625      6.257
REMARK  1 active torsions:
REMARK  status: ('A' for Active; 'I' for Inactive)
REMARK    1  A    between atoms: C_1  and  C_7 
ROOT
HETATM    1  C   UNL     1      58.843   7.335   3.241  1.00  0.00    -0.026 A 
HETATM    2  C   UNL     1      58.059   7.456   2.113  1.00  0.00     0.096 A 
HETATM    3  N   UNL     1      58.837   7.969   1.104  1.00  0.00    -0.365 N 
HETATM    4  C   UNL     1      60.151   7.811   2.889  1.00  0.00    -0.001 A 
HETATM    5  C   UNL     1      60.123   8.174   1.546  1.00  0.00     0.042 A 
HETATM    6  C   UNL     1      61.359   7.945   3.604  1.00  0.00     0.014 A 
HETATM    7  C   UNL     1      61.259   8.644   0.871  1.00  0.00     0.030 A 
HETATM    8  C   UNL     1      62.501   8.411   2.951  1.00  0.00     0.001 A 
HETATM    9  C   UNL     1      62.450   8.748   1.603  1.00  0.00     0.002 A 
HETATM   10  H   UNL     1      58.518   8.162   0.193  1.00  0.00     0.165 HD
ENDROOT
BRANCH   1  11
HETATM   11  C   UNL     1      58.504   6.815   4.609  1.00  0.00     0.024 C 
HETATM   12  C   UNL     1      57.069   7.022   5.088  1.00  0.00     0.037 C 
HETATM   13  C   UNL     1      56.983   6.602   6.561  1.00  0.00     0.233 C 
HETATM   14  N   UNL     1      57.416   5.217   6.774  1.00  0.00    -0.075 N 
HETATM   15  C   UNL     1      58.747   4.942   6.232  1.00  0.00     0.233 C 
HETATM   16  H   UNL     1      57.430   5.032   7.778  1.00  0.00     0.277 HD
HETATM   17  H   UNL     1      56.756   4.612   6.285  1.00  0.00     0.277 HD
HETATM   18  C   UNL     1      58.852   5.329   4.761  1.00  0.00     0.037 C 
ENDBRANCH   1  11
TORSDOF 1
ENDMDL
MODEL 9
REMARK VINA RESULT:      -4.2      1.977      5.503
REMARK  1 active torsions:
REMARK  status: ('A' for Active; 'I' for Inactive)
REMARK    1  A    between atoms: C_1  and  C_7 
ROOT
HETATM    1  C   UNL     1      63.241   6.664   5.235  1.00  0.00    -0.026 A 
HETATM    2  C   UNL     1      62.933   5.401   5.696  1.00  0.00     0.096 A 
HETATM    3  N   UNL     1      63.960   4.979   6.505  1.00  0.00    -0.365 N 
HETATM    4  C   UNL     1      64.521   7.005   5.787  1.00  0.00    -0.001 A 
HETATM    5  C   UNL     1      64.932   5.948   6.593  1.00  0.00     0.042 A 
HETATM    6  C   UNL     1      65.354   8.138   5.675  1.00  0.00     0.014 A 
HETATM    7  C   UNL     1      66.130   5.979   7.320  1.00  0.00     0.030 A 
HETATM    8  C   UNL     1      66.551   8.188   6.391  1.00  0.00     0.001 A 
HETATM    9  C   UNL     1      66.928   7.126   7.205  1.00  0.00     0.002 A 
HETATM   10  H   UNL     1      63.995   4.105   6.957  1.00  0.00     0.165 HD
ENDROOT
BRANCH   1  11
HETATM   11  C   UNL     1      62.463   7.588   4.342  1.00  0.00     0.024 C 
HETATM   12  C   UNL     1      63.094   7.936   2.995  1.00  0.00     0.037 C 
HETATM   13  C   UNL     1      62.247   9.029   2.330  1.00  0.00     0.233 C 
HETATM   14  N   UNL     1      60.845   8.630   2.169  1.00  0.00    -0.075 N 
HETATM   15  C   UNL     1      60.229   8.182   3.418  1.00  0.00     0.233 C 
HETATM   16  H   UNL     1      60.318   9.429   1.815  1.00  0.00     0.277 HD
HETATM   17  H   UNL     1      60.824   7.842   1.519  1.00  0.00     0.277 HD
HETATM   18  C   UNL     1      61.039   7.079   4.088  1.00  0.00     0.037 C 
ENDBRANCH   1  11
TORSDOF 1
ENDMDL
