MODEL 1
REMARK VINA RESULT:      -5.7      0.000      0.000
REMARK  1 active torsions:
REMARK  status: ('A' for Active; 'I' for Inactive)
REMARK    1  A    between atoms: C_1  and  N_5 
ROOT
HETATM    1  C   UNL     1      64.268   7.609   4.345  1.00  0.00     0.044 A 
HETATM    2  C   UNL     1      63.484   8.792   4.183  1.00  0.00     0.017 A 
HETATM    3  N   UNL     1      62.681   7.978   2.041  1.00  0.00    -0.359 N 
ATOM      4  HN  UNL     1      62.110   8.107   1.206  1.00  0.00     0.166 HD
HETATM    5  C   UNL     1      62.706   8.908   3.004  1.00  0.00     0.044 A 
HETATM    6  C   UNL     1      64.230   6.662   3.310  1.00  0.00     0.054 A 
HETATM    7  C   UNL     1      63.427   6.870   2.198  1.00  0.00     0.007 A 
HETATM    8  C   UNL     1      63.386   9.841   5.134  1.00  0.00     0.016 A 
HETATM    9  C   UNL     1      61.901  10.023   2.820  1.00  0.00     0.030 A 
HETATM   10  C   UNL     1      63.329   5.835   1.118  1.00  0.00     0.068 C 
HETATM   11  C   UNL     1      62.590  10.968   4.914  1.00  0.00     0.001 A 
HETATM   12  C   UNL     1      61.839  11.056   3.753  1.00  0.00     0.002 A 
ENDROOT
BRANCH   1  13
HETATM   13  N   UNL     1      64.988   7.347   5.532  1.00  0.00    -0.377 N 
HETATM   14  C   UNL     1      64.894   5.979   6.087  1.00  0.00     0.150 C 
HETATM   15  C   UNL     1      65.427   5.945   7.535  1.00  0.00     0.252 C 
HETATM   16  N   UNL     1      66.811   6.448   7.661  1.00  0.00    -0.072 N 
HETATM   17  C   UNL     1      66.877   7.801   7.064  1.00  0.00     0.252 C 
HETATM   18  H   UNL     1      67.072   6.494   8.646  1.00  0.00     0.277 HD
HETATM   19  H   UNL     1      67.455   5.822   7.178  1.00  0.00     0.277 HD
HETATM   20  C   UNL     1      66.372   7.871   5.596  1.00  0.00     0.150 C 
ENDBRANCH   1  13
TORSDOF 1
ENDMDL
MODEL 2
REMARK VINA RESULT:      -5.6      1.155      3.395
REMARK  1 active torsions:
REMARK  status: ('A' for Active; 'I' for Inactive)
REMARK    1  A    between atoms: C_1  and  N_5 
ROOT
HETATM    1  C   UNL     1      63.633   8.294   4.417  1.00  0.00     0.044 A 
HETATM    2  C   UNL     1      63.218   7.916   3.104  1.00  0.00     0.017 A 
HETATM    3  N   UNL     1      62.059  10.035   2.850  1.00  0.00    -0.359 N 
ATOM      4  HN  UNL     1      61.490  10.667   2.287  1.00  0.00     0.166 HD
HETATM    5  C   UNL     1      62.435   8.842   2.371  1.00  0.00     0.044 A 
HETATM    6  C   UNL     1      63.210   9.545   4.893  1.00  0.00     0.054 A 
HETATM    7  C   UNL     1      62.448  10.380   4.090  1.00  0.00     0.007 A 
HETATM    8  C   UNL     1      63.570   6.703   2.457  1.00  0.00     0.016 A 
HETATM    9  C   UNL     1      62.038   8.533   1.077  1.00  0.00     0.030 A 
HETATM   10  C   UNL     1      62.047  11.745   4.563  1.00  0.00     0.068 C 
HETATM   11  C   UNL     1      63.134   6.401   1.164  1.00  0.00     0.001 A 
HETATM   12  C   UNL     1      62.370   7.324   0.468  1.00  0.00     0.002 A 
ENDROOT
BRANCH   1  13
HETATM   13  N   UNL     1      64.508   7.493   5.184  1.00  0.00    -0.377 N 
HETATM   14  C   UNL     1      65.849   8.047   5.473  1.00  0.00     0.150 C 
HETATM   15  C   UNL     1      66.790   6.941   5.997  1.00  0.00     0.252 C 
HETATM   16  N   UNL     1      66.264   6.243   7.189  1.00  0.00    -0.072 N 
HETATM   17  C   UNL     1      64.909   5.734   6.878  1.00  0.00     0.252 C 
HETATM   18  H   UNL     1      66.877   5.464   7.429  1.00  0.00     0.277 HD
HETATM   19  H   UNL     1      66.223   6.885   7.980  1.00  0.00     0.277 HD
HETATM   20  C   UNL     1      63.925   6.824   6.370  1.00  0.00     0.150 C 
ENDBRANCH   1  13
TORSDOF 1
ENDMDL
MODEL 3
REMARK VINA RESULT:      -5.3      2.158      5.948
REMARK  1 active torsions:
REMARK  status: ('A' for Active; 'I' for Inactive)
REMARK    1  A    between atoms: C_1  and  N_5 
ROOT
HETATM    1  C   UNL     1      62.304   8.527   3.422  1.00  0.00     0.044 A 
HETATM    2  C   UNL     1      63.508   7.782   3.613  1.00  0.00     0.017 A 
HETATM    3  N   UNL     1      64.246   9.385   5.281  1.00  0.00    -0.359 N 
ATOM      4  HN  UNL     1      64.945   9.699   5.953  1.00  0.00     0.166 HD
HETATM    5  C   UNL     1      64.436   8.267   4.568  1.00  0.00     0.044 A 
HETATM    6  C   UNL     1      62.145   9.700   4.175  1.00  0.00     0.054 A 
HETATM    7  C   UNL     1      63.114  10.084   5.089  1.00  0.00     0.007 A 
HETATM    8  C   UNL     1      63.825   6.564   2.956  1.00  0.00     0.016 A 
HETATM    9  C   UNL     1      65.603   7.557   4.814  1.00  0.00     0.030 A 
HETATM   10  C   UNL     1      62.923  11.300   5.946  1.00  0.00     0.068 C 
HETATM   11  C   UNL     1      65.020   5.882   3.199  1.00  0.00     0.001 A 
HETATM   12  C   UNL     1      65.910   6.377   4.138  1.00  0.00     0.002 A 
ENDROOT
BRANCH   1  13
HETATM   13  N   UNL     1      61.268   8.068   2.579  1.00  0.00    -0.377 N 
HETATM   14  C   UNL     1      59.982   7.721   3.222  1.00  0.00     0.150 C 
HETATM   15  C   UNL     1      59.090   6.918   2.251  1.00  0.00     0.252 C 
HETATM   16  N   UNL     1      58.843   7.616   0.972  1.00  0.00    -0.072 N 
HETATM   17  C   UNL     1      60.147   7.982   0.374  1.00  0.00     0.252 C 
HETATM   18  H   UNL     1      58.334   7.001   0.336  1.00  0.00     0.277 HD
HETATM   19  H   UNL     1      58.286   8.456   1.134  1.00  0.00     0.277 HD
HETATM   20  C   UNL     1      61.064   8.812   1.314  1.00  0.00     0.150 C 
ENDBRANCH   1  13
TORSDOF 1
ENDMDL
MODEL 4
REMARK VINA RESULT:      -5.1      2.034      5.333
REMARK  1 active torsions:
REMARK  status: ('A' for Active; 'I' for Inactive)
REMARK    1  A    between atoms: C_1  and  N_5 
ROOT
HETATM    1  C   UNL     1      62.600   7.812   4.670  1.00  0.00     0.044 A 
HETATM    2  C   UNL     1      63.845   7.636   5.348  1.00  0.00     0.017 A 
HETATM    3  N   UNL     1      62.970   5.665   6.463  1.00  0.00    -0.359 N 
ATOM      4  HN  UNL     1      63.098   4.888   7.111  1.00  0.00     0.166 HD
HETATM    5  C   UNL     1      63.963   6.532   6.229  1.00  0.00     0.044 A 
HETATM    6  C   UNL     1      61.577   6.893   4.950  1.00  0.00     0.054 A 
HETATM    7  C   UNL     1      61.799   5.842   5.827  1.00  0.00     0.007 A 
HETATM    8  C   UNL     1      64.991   8.454   5.170  1.00  0.00     0.016 A 
HETATM    9  C   UNL     1      65.165   6.300   6.882  1.00  0.00     0.030 A 
HETATM   10  C   UNL     1      60.734   4.817   6.082  1.00  0.00     0.068 C 
HETATM   11  C   UNL     1      66.183   8.217   5.861  1.00  0.00     0.001 A 
HETATM   12  C   UNL     1      66.272   7.131   6.717  1.00  0.00     0.002 A 
ENDROOT
BRANCH   1  13
HETATM   13  N   UNL     1      62.418   8.812   3.689  1.00  0.00    -0.377 N 
HETATM   14  C   UNL     1      61.928   8.372   2.364  1.00  0.00     0.150 C 
HETATM   15  C   UNL     1      62.117   9.492   1.318  1.00  0.00     0.252 C 
HETATM   16  N   UNL     1      61.470  10.764   1.700  1.00  0.00    -0.072 N 
HETATM   17  C   UNL     1      61.954  11.155   3.044  1.00  0.00     0.252 C 
HETATM   18  H   UNL     1      61.709  11.489   1.024  1.00  0.00     0.277 HD
HETATM   19  H   UNL     1      60.456  10.649   1.714  1.00  0.00     0.277 HD
HETATM   20  C   UNL     1      61.758  10.061   4.130  1.00  0.00     0.150 C 
ENDBRANCH   1  13
TORSDOF 1
ENDMDL
MODEL 5
REMARK VINA RESULT:      -5.1      1.552      1.938
REMARK  1 active torsions:
REMARK  status: ('A' for Active; 'I' for Inactive)
REMARK    1  A    between atoms: C_1  and  N_5 
ROOT
HETATM    1  C   UNL     1      63.020   7.688   3.594  1.00  0.00     0.044 A 
HETATM    2  C   UNL     1      62.781   9.057   3.924  1.00  0.00     0.017 A 
HETATM    3  N   UNL     1      61.631   9.376   1.810  1.00  0.00    -0.359 N 
ATOM      4  HN  UNL     1      61.129   9.982   1.162  1.00  0.00     0.166 HD
HETATM    5  C   UNL     1      62.071   9.845   2.984  1.00  0.00     0.044 A 
HETATM    6  C   UNL     1      62.557   7.234   2.349  1.00  0.00     0.054 A 
HETATM    7  C   UNL     1      61.866   8.088   1.504  1.00  0.00     0.007 A 
HETATM    8  C   UNL     1      63.157   9.678   5.144  1.00  0.00     0.016 A 
HETATM    9  C   UNL     1      61.784  11.171   3.277  1.00  0.00     0.030 A 
HETATM   10  C   UNL     1      61.310   7.596   0.201  1.00  0.00     0.068 C 
HETATM   11  C   UNL     1      62.882  11.023   5.405  1.00  0.00     0.001 A 
HETATM   12  C   UNL     1      62.186  11.771   4.469  1.00  0.00     0.002 A 
ENDROOT
BRANCH   1  13
HETATM   13  N   UNL     1      63.617   6.792   4.508  1.00  0.00    -0.377 N 
HETATM   14  C   UNL     1      63.032   5.436   4.601  1.00  0.00     0.150 C 
HETATM   15  C   UNL     1      63.547   4.710   5.862  1.00  0.00     0.252 C 
HETATM   16  N   UNL     1      65.021   4.630   5.931  1.00  0.00    -0.072 N 
HETATM   17  C   UNL     1      65.574   5.997   5.798  1.00  0.00     0.252 C 
HETATM   18  H   UNL     1      65.303   4.231   6.826  1.00  0.00     0.277 HD
HETATM   19  H   UNL     1      65.374   4.037   5.179  1.00  0.00     0.277 HD
HETATM   20  C   UNL     1      65.097   6.752   4.526  1.00  0.00     0.150 C 
ENDBRANCH   1  13
TORSDOF 1
ENDMDL
MODEL 6
REMARK VINA RESULT:      -5.0      1.476      4.565
REMARK  1 active torsions:
REMARK  status: ('A' for Active; 'I' for Inactive)
REMARK    1  A    between atoms: C_1  and  N_5 
ROOT
HETATM    1  C   UNL     1      63.648   7.227   3.716  1.00  0.00     0.044 A 
HETATM    2  C   UNL     1      63.156   8.551   3.933  1.00  0.00     0.017 A 
HETATM    3  N   UNL     1      64.540   8.748   5.919  1.00  0.00    -0.359 N 
ATOM      4  HN  UNL     1      64.865   9.294   6.716  1.00  0.00     0.166 HD
HETATM    5  C   UNL     1      63.653   9.259   5.056  1.00  0.00     0.044 A 
HETATM    6  C   UNL     1      64.565   6.718   4.648  1.00  0.00     0.054 A 
HETATM    7  C   UNL     1      64.992   7.499   5.711  1.00  0.00     0.007 A 
HETATM    8  C   UNL     1      62.245   9.230   3.084  1.00  0.00     0.016 A 
HETATM    9  C   UNL     1      63.231  10.561   5.287  1.00  0.00     0.030 A 
HETATM   10  C   UNL     1      66.022   6.989   6.675  1.00  0.00     0.068 C 
HETATM   11  C   UNL     1      61.812  10.531   3.353  1.00  0.00     0.001 A 
HETATM   12  C   UNL     1      62.313  11.202   4.457  1.00  0.00     0.002 A 
ENDROOT
BRANCH   1  13
HETATM   13  N   UNL     1      63.303   6.481   2.567  1.00  0.00    -0.377 N 
HETATM   14  C   UNL     1      64.339   5.583   2.012  1.00  0.00     0.150 C 
HETATM   15  C   UNL     1      63.950   5.120   0.591  1.00  0.00     0.252 C 
HETATM   16  N   UNL     1      62.627   4.464   0.532  1.00  0.00    -0.072 N 
HETATM   17  C   UNL     1      61.622   5.373   1.128  1.00  0.00     0.252 C 
HETATM   18  H   UNL     1      62.383   4.270  -0.439  1.00  0.00     0.277 HD
HETATM   19  H   UNL     1      62.651   3.584   1.048  1.00  0.00     0.277 HD
HETATM   20  C   UNL     1      61.967   5.841   2.569  1.00  0.00     0.150 C 
ENDBRANCH   1  13
TORSDOF 1
ENDMDL
MODEL 7
REMARK VINA RESULT:      -4.8      2.488      3.323
REMARK  1 active torsions:
REMARK  status: ('A' for Active; 'I' for Inactive)
REMARK    1  A    between atoms: C_1  and  N_5 
ROOT
HETATM    1  C   UNL     1      62.943   7.889   4.202  1.00  0.00     0.044 A 
HETATM    2  C   UNL     1      61.675   7.273   4.430  1.00  0.00     0.017 A 
HETATM    3  N   UNL     1      60.614   8.894   2.966  1.00  0.00    -0.359 N 
ATOM      4  HN  UNL     1      59.775   9.261   2.517  1.00  0.00     0.166 HD
HETATM    5  C   UNL     1      60.548   7.826   3.771  1.00  0.00     0.044 A 
HETATM    6  C   UNL     1      62.973   9.015   3.365  1.00  0.00     0.054 A 
HETATM    7  C   UNL     1      61.811   9.473   2.763  1.00  0.00     0.007 A 
HETATM    8  C   UNL     1      61.462   6.118   5.227  1.00  0.00     0.016 A 
HETATM    9  C   UNL     1      59.301   7.239   3.934  1.00  0.00     0.030 A 
HETATM   10  C   UNL     1      61.842  10.634   1.815  1.00  0.00     0.068 C 
HETATM   11  C   UNL     1      60.192   5.562   5.399  1.00  0.00     0.001 A 
HETATM   12  C   UNL     1      59.107   6.122   4.743  1.00  0.00     0.002 A 
ENDROOT
BRANCH   1  13
HETATM   13  N   UNL     1      64.140   7.348   4.720  1.00  0.00    -0.377 N 
HETATM   14  C   UNL     1      64.909   6.446   3.834  1.00  0.00     0.150 C 
HETATM   15  C   UNL     1      65.973   5.671   4.641  1.00  0.00     0.252 C 
HETATM   16  N   UNL     1      66.894   6.552   5.390  1.00  0.00    -0.072 N 
HETATM   17  C   UNL     1      66.092   7.463   6.237  1.00  0.00     0.252 C 
HETATM   18  H   UNL     1      67.508   5.987   5.978  1.00  0.00     0.277 HD
HETATM   19  H   UNL     1      67.466   7.092   4.740  1.00  0.00     0.277 HD
HETATM   20  C   UNL     1      65.026   8.279   5.455  1.00  0.00     0.150 C 
ENDBRANCH   1  13
TORSDOF 1
ENDMDL
MODEL 8
REMARK VINA RESULT:      -4.7      2.030      5.438
REMARK  1 active torsions:
REMARK  status: ('A' for Active; 'I' for Inactive)
REMARK    1  A    between atoms: C_1  and  N_5 
ROOT
HETATM    1  C   UNL     1      63.587   8.233   4.521  1.00  0.00     0.044 A 
HETATM    2  C   UNL     1      62.857   7.110   5.018  1.00  0.00     0.017 A 
HETATM    3  N   UNL     1      64.742   6.490   6.417  1.00  0.00    -0.359 N 
ATOM      4  HN  UNL     1      65.164   5.864   7.102  1.00  0.00     0.166 HD
HETATM    5  C   UNL     1      63.496   6.281   5.973  1.00  0.00     0.044 A 
HETATM    6  C   UNL     1      64.894   8.414   4.997  1.00  0.00     0.054 A 
HETATM    7  C   UNL     1      65.425   7.546   5.940  1.00  0.00     0.007 A 
HETATM    8  C   UNL     1      61.520   6.787   4.665  1.00  0.00     0.016 A 
HETATM    9  C   UNL     1      62.813   5.199   6.510  1.00  0.00     0.030 A 
HETATM   10  C   UNL     1      66.796   7.768   6.503  1.00  0.00     0.068 C 
HETATM   11  C   UNL     1      60.863   5.675   5.198  1.00  0.00     0.001 A 
HETATM   12  C   UNL     1      61.510   4.881   6.130  1.00  0.00     0.002 A 
ENDROOT
BRANCH   1  13
HETATM   13  N   UNL     1      63.000   9.181   3.655  1.00  0.00    -0.377 N 
HETATM   14  C   UNL     1      62.392   8.667   2.407  1.00  0.00     0.150 C 
HETATM   15  C   UNL     1      62.120   9.824   1.422  1.00  0.00     0.252 C 
HETATM   16  N   UNL     1      61.274  10.892   1.993  1.00  0.00    -0.072 N 
HETATM   17  C   UNL     1      61.891  11.357   3.257  1.00  0.00     0.252 C 
HETATM   18  H   UNL     1      61.209  11.669   1.336  1.00  0.00     0.277 HD
HETATM   19  H   UNL     1      60.335  10.535   2.174  1.00  0.00     0.277 HD
HETATM   20  C   UNL     1      62.158  10.223   4.285  1.00  0.00     0.150 C 
ENDBRANCH   1  13
TORSDOF 1
ENDMDL
MODEL 9
REMARK VINA RESULT:      -4.7      2.130      2.937
REMARK  1 active torsions:
REMARK  status: ('A' for Active; 'I' for Inactive)
REMARK    1  A    between atoms: C_1  and  N_5 
ROOT
HETATM    1  C   UNL     1      63.844   6.376   5.810  1.00  0.00     0.044 A 
HETATM    2  C   UNL     1      63.097   7.222   4.934  1.00  0.00     0.017 A 
HETATM    3  N   UNL     1      61.098   5.912   5.359  1.00  0.00    -0.359 N 
ATOM      4  HN  UNL     1      60.106   5.740   5.199  1.00  0.00     0.166 HD
HETATM    5  C   UNL     1      61.721   6.934   4.759  1.00  0.00     0.044 A 
HETATM    6  C   UNL     1      63.163   5.306   6.410  1.00  0.00     0.054 A 
HETATM    7  C   UNL     1      61.810   5.116   6.177  1.00  0.00     0.007 A 
HETATM    8  C   UNL     1      63.617   8.359   4.261  1.00  0.00     0.016 A 
HETATM    9  C   UNL     1      60.947   7.750   3.946  1.00  0.00     0.030 A 
HETATM   10  C   UNL     1      61.058   4.016   6.865  1.00  0.00     0.068 C 
HETATM   11  C   UNL     1      62.824   9.148   3.424  1.00  0.00     0.001 A 
HETATM   12  C   UNL     1      61.481   8.846   3.271  1.00  0.00     0.002 A 
ENDROOT
BRANCH   1  13
HETATM   13  N   UNL     1      65.192   6.645   6.138  1.00  0.00    -0.377 N 
HETATM   14  C   UNL     1      65.574   6.520   7.562  1.00  0.00     0.150 C 
HETATM   15  C   UNL     1      66.950   7.175   7.812  1.00  0.00     0.252 C 
HETATM   16  N   UNL     1      68.021   6.631   6.951  1.00  0.00    -0.072 N 
HETATM   17  C   UNL     1      67.591   6.737   5.538  1.00  0.00     0.252 C 
HETATM   18  H   UNL     1      68.879   7.165   7.090  1.00  0.00     0.277 HD
HETATM   19  H   UNL     1      68.199   5.655   7.189  1.00  0.00     0.277 HD
HETATM   20  C   UNL     1      66.220   6.068   5.242  1.00  0.00     0.150 C 
ENDBRANCH   1  13
TORSDOF 1
ENDMDL
