MODEL 1
REMARK VINA RESULT:      -5.2      0.000      0.000
REMARK  1 active torsions:
REMARK  status: ('A' for Active; 'I' for Inactive)
REMARK    1  A    between atoms: C_1  and  C_3 
ROOT
HETATM    1  C   UNL     1      62.974   7.881   2.669  1.00  0.00     0.043 A 
HETATM    2  C   UNL     1      62.390  10.039   3.533  1.00  0.00     0.043 A 
HETATM    3  N   UNL     1      63.465   6.596   2.585  1.00  0.00    -0.365 N 
HETATM    4  C   UNL     1      62.984   8.784   3.739  1.00  0.00     0.048 A 
HETATM    5  C   UNL     1      63.210   6.075   1.344  1.00  0.00     0.089 A 
HETATM    6  C   UNL     1      62.415   8.188   1.428  1.00  0.00    -0.008 A 
HETATM    7  C   UNL     1      62.568   7.041   0.604  1.00  0.00     0.030 A 
HETATM    8  C   UNL     1      61.857  10.388   2.288  1.00  0.00     0.019 A 
HETATM    9  C   UNL     1      61.858   9.467   1.232  1.00  0.00     0.015 A 
HETATM   10  H   UNL     1      63.932   6.122   3.311  1.00  0.00     0.165 HD
ENDROOT
BRANCH   2  11
HETATM   11  C   UNL     1      62.373  10.988   4.675  1.00  0.00     0.209 C 
HETATM   12  O   UNL     1      61.900  12.110   4.602  1.00  0.00    -0.644 OA
HETATM   13  O   UNL     1      62.984  10.510   5.779  1.00  0.00    -0.644 OA
ENDBRANCH   2  11
TORSDOF 1
ENDMDL
MODEL 2
REMARK VINA RESULT:      -5.0      2.676      3.707
REMARK  1 active torsions:
REMARK  status: ('A' for Active; 'I' for Inactive)
REMARK    1  A    between atoms: C_1  and  C_3 
ROOT
HETATM    1  C   UNL     1      62.227  10.024   3.678  1.00  0.00     0.043 A 
HETATM    2  C   UNL     1      62.881   8.083   4.922  1.00  0.00     0.043 A 
HETATM    3  N   UNL     1      61.839  11.310   3.372  1.00  0.00    -0.365 N 
HETATM    4  C   UNL     1      62.486   9.430   4.919  1.00  0.00     0.048 A 
HETATM    5  C   UNL     1      61.725  11.457   2.015  1.00  0.00     0.089 A 
HETATM    6  C   UNL     1      62.333   9.330   2.473  1.00  0.00    -0.008 A 
HETATM    7  C   UNL     1      62.018  10.245   1.433  1.00  0.00     0.030 A 
HETATM    8  C   UNL     1      62.959   7.352   3.732  1.00  0.00     0.019 A 
HETATM    9  C   UNL     1      62.695   7.968   2.502  1.00  0.00     0.015 A 
HETATM   10  H   UNL     1      61.667  12.020   4.033  1.00  0.00     0.165 HD
ENDROOT
BRANCH   2  11
HETATM   11  C   UNL     1      63.186   7.458   6.234  1.00  0.00     0.209 C 
HETATM   12  O   UNL     1      64.320   7.323   6.661  1.00  0.00    -0.644 OA
HETATM   13  O   UNL     1      62.091   7.000   6.877  1.00  0.00    -0.644 OA
ENDBRANCH   2  11
TORSDOF 1
ENDMDL
MODEL 3
REMARK VINA RESULT:      -5.0      2.062      2.868
REMARK  1 active torsions:
REMARK  status: ('A' for Active; 'I' for Inactive)
REMARK    1  A    between atoms: C_1  and  C_3 
ROOT
HETATM    1  C   UNL     1      63.357   8.342   5.075  1.00  0.00     0.043 A 
HETATM    2  C   UNL     1      62.440   9.908   3.510  1.00  0.00     0.043 A 
HETATM    3  N   UNL     1      63.835   7.790   6.244  1.00  0.00    -0.365 N 
HETATM    4  C   UNL     1      62.877   9.631   4.815  1.00  0.00     0.048 A 
HETATM    5  C   UNL     1      64.174   6.479   6.040  1.00  0.00     0.089 A 
HETATM    6  C   UNL     1      63.425   7.351   4.095  1.00  0.00    -0.008 A 
HETATM    7  C   UNL     1      63.938   6.181   4.718  1.00  0.00     0.030 A 
HETATM    8  C   UNL     1      62.532   8.946   2.500  1.00  0.00     0.019 A 
HETATM    9  C   UNL     1      63.016   7.662   2.784  1.00  0.00     0.015 A 
HETATM   10  H   UNL     1      63.920   8.269   7.100  1.00  0.00     0.165 HD
ENDROOT
BRANCH   2  11
HETATM   11  C   UNL     1      61.902  11.265   3.238  1.00  0.00     0.209 C 
HETATM   12  O   UNL     1      61.627  11.662   2.118  1.00  0.00    -0.644 OA
HETATM   13  O   UNL     1      61.805  12.035   4.342  1.00  0.00    -0.644 OA
ENDBRANCH   2  11
TORSDOF 1
ENDMDL
MODEL 4
REMARK VINA RESULT:      -4.9      2.142      2.873
REMARK  1 active torsions:
REMARK  status: ('A' for Active; 'I' for Inactive)
REMARK    1  A    between atoms: C_1  and  C_3 
ROOT
HETATM    1  C   UNL     1      62.862   8.151   2.599  1.00  0.00     0.043 A 
HETATM    2  C   UNL     1      63.645   8.577   4.824  1.00  0.00     0.043 A 
HETATM    3  N   UNL     1      62.660   7.544   1.379  1.00  0.00    -0.365 N 
HETATM    4  C   UNL     1      63.639   7.748   3.692  1.00  0.00     0.048 A 
HETATM    5  C   UNL     1      61.795   8.288   0.621  1.00  0.00     0.089 A 
HETATM    6  C   UNL     1      62.120   9.333   2.597  1.00  0.00    -0.008 A 
HETATM    7  C   UNL     1      61.450   9.405   1.346  1.00  0.00     0.030 A 
HETATM    8  C   UNL     1      62.941   9.786   4.835  1.00  0.00     0.019 A 
HETATM    9  C   UNL     1      62.170  10.169   3.730  1.00  0.00     0.015 A 
HETATM   10  H   UNL     1      63.077   6.699   1.093  1.00  0.00     0.165 HD
ENDROOT
BRANCH   2  11
HETATM   11  C   UNL     1      64.444   8.137   5.995  1.00  0.00     0.209 C 
HETATM   12  O   UNL     1      64.025   7.360   6.835  1.00  0.00    -0.644 OA
HETATM   13  O   UNL     1      65.655   8.729   6.071  1.00  0.00    -0.644 OA
ENDBRANCH   2  11
TORSDOF 1
ENDMDL
MODEL 5
REMARK VINA RESULT:      -4.7      1.402      1.679
REMARK  1 active torsions:
REMARK  status: ('A' for Active; 'I' for Inactive)
REMARK    1  A    between atoms: C_1  and  C_3 
ROOT
HETATM    1  C   UNL     1      61.272   7.943   2.744  1.00  0.00     0.043 A 
HETATM    2  C   UNL     1      62.046  10.056   3.568  1.00  0.00     0.043 A 
HETATM    3  N   UNL     1      60.841   6.635   2.704  1.00  0.00    -0.365 N 
HETATM    4  C   UNL     1      61.657   8.734   3.833  1.00  0.00     0.048 A 
HETATM    5  C   UNL     1      60.545   6.276   1.416  1.00  0.00     0.089 A 
HETATM    6  C   UNL     1      61.275   8.414   1.431  1.00  0.00    -0.008 A 
HETATM    7  C   UNL     1      60.811   7.356   0.605  1.00  0.00     0.030 A 
HETATM    8  C   UNL     1      62.094  10.544   2.258  1.00  0.00     0.019 A 
HETATM    9  C   UNL     1      61.703   9.734   1.184  1.00  0.00     0.015 A 
HETATM   10  H   UNL     1      60.758   6.044   3.488  1.00  0.00     0.165 HD
ENDROOT
BRANCH   2  11
HETATM   11  C   UNL     1      62.427  10.907   4.723  1.00  0.00     0.209 C 
HETATM   12  O   UNL     1      63.045  10.487   5.687  1.00  0.00    -0.644 OA
HETATM   13  O   UNL     1      61.970  12.174   4.630  1.00  0.00    -0.644 OA
ENDBRANCH   2  11
TORSDOF 1
ENDMDL
MODEL 6
REMARK VINA RESULT:      -4.7      1.695      2.438
REMARK  1 active torsions:
REMARK  status: ('A' for Active; 'I' for Inactive)
REMARK    1  A    between atoms: C_1  and  C_3 
ROOT
HETATM    1  C   UNL     1      61.614   8.881   2.433  1.00  0.00     0.043 A 
HETATM    2  C   UNL     1      63.185   9.095   4.230  1.00  0.00     0.043 A 
HETATM    3  N   UNL     1      60.561   9.134   1.581  1.00  0.00    -0.365 N 
HETATM    4  C   UNL     1      62.062   9.594   3.551  1.00  0.00     0.048 A 
HETATM    5  C   UNL     1      60.508   8.177   0.602  1.00  0.00     0.089 A 
HETATM    6  C   UNL     1      62.227   7.708   1.991  1.00  0.00    -0.008 A 
HETATM    7  C   UNL     1      61.523   7.278   0.835  1.00  0.00     0.030 A 
HETATM    8  C   UNL     1      63.796   7.902   3.832  1.00  0.00     0.019 A 
HETATM    9  C   UNL     1      63.330   7.206   2.709  1.00  0.00     0.015 A 
HETATM   10  H   UNL     1      59.937   9.891   1.664  1.00  0.00     0.165 HD
ENDROOT
BRANCH   2  11
HETATM   11  C   UNL     1      63.682   9.865   5.398  1.00  0.00     0.209 C 
HETATM   12  O   UNL     1      63.043  10.757   5.930  1.00  0.00    -0.644 OA
HETATM   13  O   UNL     1      64.932   9.522   5.774  1.00  0.00    -0.644 OA
ENDBRANCH   2  11
TORSDOF 1
ENDMDL
MODEL 7
REMARK VINA RESULT:      -4.5      1.376      2.341
REMARK  1 active torsions:
REMARK  status: ('A' for Active; 'I' for Inactive)
REMARK    1  A    between atoms: C_1  and  C_3 
ROOT
HETATM    1  C   UNL     1      62.406   7.767   2.613  1.00  0.00     0.043 A 
HETATM    2  C   UNL     1      62.405   9.966   3.567  1.00  0.00     0.043 A 
HETATM    3  N   UNL     1      62.199   6.721   1.739  1.00  0.00    -0.365 N 
HETATM    4  C   UNL     1      62.047   9.116   2.508  1.00  0.00     0.048 A 
HETATM    5  C   UNL     1      62.745   5.571   2.245  1.00  0.00     0.089 A 
HETATM    6  C   UNL     1      63.080   7.250   3.719  1.00  0.00    -0.008 A 
HETATM    7  C   UNL     1      63.291   5.867   3.473  1.00  0.00     0.030 A 
HETATM    8  C   UNL     1      63.047   9.467   4.704  1.00  0.00     0.019 A 
HETATM    9  C   UNL     1      63.396   8.113   4.787  1.00  0.00     0.015 A 
HETATM   10  H   UNL     1      61.727   6.791   0.878  1.00  0.00     0.165 HD
ENDROOT
BRANCH   2  11
HETATM   11  C   UNL     1      62.053  11.403   3.445  1.00  0.00     0.209 C 
HETATM   12  O   UNL     1      61.806  12.113   4.405  1.00  0.00    -0.644 OA
HETATM   13  O   UNL     1      61.975  11.829   2.167  1.00  0.00    -0.644 OA
ENDBRANCH   2  11
TORSDOF 1
ENDMDL
MODEL 8
REMARK VINA RESULT:      -4.4      3.125      4.431
REMARK  1 active torsions:
REMARK  status: ('A' for Active; 'I' for Inactive)
REMARK    1  A    between atoms: C_1  and  C_3 
ROOT
HETATM    1  C   UNL     1      62.429   9.334   3.126  1.00  0.00     0.043 A 
HETATM    2  C   UNL     1      62.878   7.221   2.089  1.00  0.00     0.043 A 
HETATM    3  N   UNL     1      62.303  10.322   4.080  1.00  0.00    -0.365 N 
HETATM    4  C   UNL     1      62.836   8.001   3.255  1.00  0.00     0.048 A 
HETATM    5  C   UNL     1      61.895  11.491   3.494  1.00  0.00     0.089 A 
HETATM    6  C   UNL     1      62.060   9.895   1.903  1.00  0.00    -0.008 A 
HETATM    7  C   UNL     1      61.729  11.255   2.149  1.00  0.00     0.030 A 
HETATM    8  C   UNL     1      62.478   7.746   0.856  1.00  0.00     0.019 A 
HETATM    9  C   UNL     1      62.075   9.084   0.752  1.00  0.00     0.015 A 
HETATM   10  H   UNL     1      62.480  10.203   5.041  1.00  0.00     0.165 HD
ENDROOT
BRANCH   2  11
HETATM   11  C   UNL     1      63.338   5.815   2.217  1.00  0.00     0.209 C 
HETATM   12  O   UNL     1      64.494   5.510   2.459  1.00  0.00    -0.644 OA
HETATM   13  O   UNL     1      62.366   4.909   1.980  1.00  0.00    -0.644 OA
ENDBRANCH   2  11
TORSDOF 1
ENDMDL
MODEL 9
REMARK VINA RESULT:      -4.1      5.027      6.392
REMARK  1 active torsions:
REMARK  status: ('A' for Active; 'I' for Inactive)
REMARK    1  A    between atoms: C_1  and  C_3 
ROOT
HETATM    1  C   UNL     1      64.436   7.227   6.309  1.00  0.00     0.043 A 
HETATM    2  C   UNL     1      66.359   5.903   6.849  1.00  0.00     0.043 A 
HETATM    3  N   UNL     1      63.163   7.755   6.336  1.00  0.00    -0.365 N 
HETATM    4  C   UNL     1      65.019   6.233   7.103  1.00  0.00     0.048 A 
HETATM    5  C   UNL     1      63.039   8.733   5.385  1.00  0.00     0.089 A 
HETATM    6  C   UNL     1      65.128   7.877   5.286  1.00  0.00    -0.008 A 
HETATM    7  C   UNL     1      64.238   8.825   4.715  1.00  0.00     0.030 A 
HETATM    8  C   UNL     1      67.065   6.511   5.806  1.00  0.00     0.019 A 
HETATM    9  C   UNL     1      66.461   7.504   5.024  1.00  0.00     0.015 A 
HETATM   10  H   UNL     1      62.447   7.470   6.949  1.00  0.00     0.165 HD
ENDROOT
BRANCH   2  11
HETATM   11  C   UNL     1      66.990   4.870   7.709  1.00  0.00     0.209 C 
HETATM   12  O   UNL     1      66.596   4.607   8.833  1.00  0.00    -0.644 OA
HETATM   13  O   UNL     1      68.075   4.295   7.149  1.00  0.00    -0.644 OA
ENDBRANCH   2  11
TORSDOF 1
ENDMDL
