MODEL 1
REMARK VINA RESULT:      -6.0      0.000      0.000
REMARK  2 active torsions:
REMARK  status: ('A' for Active; 'I' for Inactive)
REMARK    1  A    between atoms: C_2  and  C_7 
REMARK    2  A    between atoms: C_6  and  O_8 
ROOT
HETATM    1  N   UNL     1      64.753   8.219   4.829  1.00  0.00    -0.058 N 
HETATM    2  C   UNL     1      63.533   7.835   4.112  1.00  0.00     0.222 C 
HETATM    3  C   UNL     1      65.470   7.094   5.451  1.00  0.00     0.129 C 
HETATM    4  C   UNL     1      63.844   6.825   2.995  1.00  0.00     0.069 C 
HETATM    5  C   UNL     1      65.791   6.021   4.382  1.00  0.00     0.070 C 
HETATM    6  C   UNL     1      64.599   5.609   3.518  1.00  0.00     0.122 C 
HETATM    7  C   UNL     1      64.721   6.516   6.677  1.00  0.00     0.039 C 
HETATM    8  C   UNL     1      66.807   7.623   6.052  1.00  0.00     0.039 C 
HETATM    9  C   UNL     1      66.755   7.355   7.553  1.00  0.00     0.002 C 
HETATM   10  C   UNL     1      65.810   6.180   7.685  1.00  0.00     0.002 C 
HETATM   11  H   UNL     1      64.497   8.879   5.564  1.00  0.00     0.279 HD
HETATM   12  H   UNL     1      65.385   8.622   4.137  1.00  0.00     0.279 HD
ENDROOT
BRANCH   2  13
HETATM   13  C   UNL     1      62.832   9.055   3.530  1.00  0.00    -0.028 A 
HETATM   14  C   UNL     1      62.556  10.186   4.317  1.00  0.00     0.009 A 
HETATM   15  C   UNL     1      61.976  11.325   3.758  1.00  0.00     0.001 A 
HETATM   16  C   UNL     1      61.655  11.350   2.403  1.00  0.00     0.000 A 
HETATM   17  C   UNL     1      61.903  10.232   1.611  1.00  0.00     0.001 A 
HETATM   18  C   UNL     1      62.487   9.092   2.169  1.00  0.00     0.009 A 
ENDBRANCH   2  13
BRANCH   6  19
HETATM   19  O   UNL     1      63.740   4.711   4.214  1.00  0.00    -0.395 OA
HETATM   20  H   UNL     1      62.871   5.125   4.338  1.00  0.00     0.210 HD
ENDBRANCH   6  19
TORSDOF 2
ENDMDL
MODEL 2
REMARK VINA RESULT:      -5.8      4.062      5.480
REMARK  2 active torsions:
REMARK  status: ('A' for Active; 'I' for Inactive)
REMARK    1  A    between atoms: C_2  and  C_7 
REMARK    2  A    between atoms: C_6  and  O_8 
ROOT
HETATM    1  N   UNL     1      60.359   8.772   3.284  1.00  0.00    -0.058 N 
HETATM    2  C   UNL     1      59.964   7.708   2.356  1.00  0.00     0.222 C 
HETATM    3  C   UNL     1      61.774   9.167   3.185  1.00  0.00     0.129 C 
HETATM    4  C   UNL     1      60.216   8.124   0.898  1.00  0.00     0.069 C 
HETATM    5  C   UNL     1      62.106   9.573   1.728  1.00  0.00     0.070 C 
HETATM    6  C   UNL     1      61.657   8.565   0.670  1.00  0.00     0.122 C 
HETATM    7  C   UNL     1      62.733   8.085   3.741  1.00  0.00     0.039 C 
HETATM    8  C   UNL     1      62.019  10.391   4.118  1.00  0.00     0.039 C 
HETATM    9  C   UNL     1      63.057   9.961   5.150  1.00  0.00     0.002 C 
HETATM   10  C   UNL     1      63.830   8.858   4.457  1.00  0.00     0.002 C 
HETATM   11  H   UNL     1      60.184   8.449   4.235  1.00  0.00     0.279 HD
HETATM   12  H   UNL     1      59.809   9.595   3.037  1.00  0.00     0.279 HD
ENDROOT
BRANCH   2  13
HETATM   13  C   UNL     1      58.500   7.333   2.544  1.00  0.00    -0.028 A 
HETATM   14  C   UNL     1      57.676   7.024   1.448  1.00  0.00     0.009 A 
HETATM   15  C   UNL     1      56.356   6.615   1.636  1.00  0.00     0.001 A 
HETATM   16  C   UNL     1      55.833   6.515   2.923  1.00  0.00     0.000 A 
HETATM   17  C   UNL     1      56.628   6.836   4.020  1.00  0.00     0.001 A 
HETATM   18  C   UNL     1      57.952   7.242   3.834  1.00  0.00     0.009 A 
ENDBRANCH   2  13
BRANCH   6  19
HETATM   19  O   UNL     1      62.546   7.455   0.601  1.00  0.00    -0.395 OA
HETATM   20  H   UNL     1      63.448   7.749   0.810  1.00  0.00     0.210 HD
ENDBRANCH   6  19
TORSDOF 2
ENDMDL
MODEL 3
REMARK VINA RESULT:      -5.8      1.382      2.205
REMARK  2 active torsions:
REMARK  status: ('A' for Active; 'I' for Inactive)
REMARK    1  A    between atoms: C_2  and  C_7 
REMARK    2  A    between atoms: C_6  and  O_8 
ROOT
HETATM    1  N   UNL     1      65.433   7.769   6.278  1.00  0.00    -0.058 N 
HETATM    2  C   UNL     1      64.824   7.374   5.004  1.00  0.00     0.222 C 
HETATM    3  C   UNL     1      66.362   6.775   6.840  1.00  0.00     0.129 C 
HETATM    4  C   UNL     1      65.899   7.106   3.938  1.00  0.00     0.069 C 
HETATM    5  C   UNL     1      67.460   6.436   5.802  1.00  0.00     0.070 C 
HETATM    6  C   UNL     1      66.932   6.090   4.410  1.00  0.00     0.122 C 
HETATM    7  C   UNL     1      65.634   5.518   7.377  1.00  0.00     0.039 C 
HETATM    8  C   UNL     1      67.037   7.380   8.108  1.00  0.00     0.039 C 
HETATM    9  C   UNL     1      66.656   6.484   9.283  1.00  0.00     0.002 C 
HETATM   10  C   UNL     1      66.382   5.138   8.646  1.00  0.00     0.002 C 
HETATM   11  H   UNL     1      64.686   7.926   6.955  1.00  0.00     0.279 HD
HETATM   12  H   UNL     1      65.982   8.609   6.092  1.00  0.00     0.279 HD
ENDROOT
BRANCH   2  13
HETATM   13  C   UNL     1      63.853   8.436   4.508  1.00  0.00    -0.028 A 
HETATM   14  C   UNL     1      63.145   8.277   3.304  1.00  0.00     0.009 A 
HETATM   15  C   UNL     1      62.206   9.223   2.894  1.00  0.00     0.001 A 
HETATM   16  C   UNL     1      61.963  10.349   3.676  1.00  0.00     0.000 A 
HETATM   17  C   UNL     1      62.669  10.535   4.862  1.00  0.00     0.001 A 
HETATM   18  C   UNL     1      63.607   9.586   5.276  1.00  0.00     0.009 A 
ENDBRANCH   2  13
BRANCH   6  19
HETATM   19  O   UNL     1      66.426   4.759   4.363  1.00  0.00    -0.395 OA
HETATM   20  H   UNL     1      66.457   4.370   5.252  1.00  0.00     0.210 HD
ENDBRANCH   6  19
TORSDOF 2
ENDMDL
MODEL 4
REMARK VINA RESULT:      -5.6      1.415      5.572
REMARK  2 active torsions:
REMARK  status: ('A' for Active; 'I' for Inactive)
REMARK    1  A    between atoms: C_2  and  C_7 
REMARK    2  A    between atoms: C_6  and  O_8 
ROOT
HETATM    1  N   UNL     1      63.180   8.753   4.389  1.00  0.00    -0.058 N 
HETATM    2  C   UNL     1      63.539   7.368   4.712  1.00  0.00     0.222 C 
HETATM    3  C   UNL     1      62.109   8.883   3.388  1.00  0.00     0.129 C 
HETATM    4  C   UNL     1      62.324   6.592   5.246  1.00  0.00     0.069 C 
HETATM    5  C   UNL     1      60.858   8.098   3.851  1.00  0.00     0.070 C 
HETATM    6  C   UNL     1      61.138   6.661   4.292  1.00  0.00     0.122 C 
HETATM    7  C   UNL     1      62.575   8.488   1.964  1.00  0.00     0.039 C 
HETATM    8  C   UNL     1      61.735  10.390   3.248  1.00  0.00     0.039 C 
HETATM    9  C   UNL     1      62.018  10.784   1.801  1.00  0.00     0.002 C 
HETATM   10  C   UNL     1      61.898   9.484   1.035  1.00  0.00     0.002 C 
HETATM   11  H   UNL     1      64.011   9.223   4.031  1.00  0.00     0.279 HD
HETATM   12  H   UNL     1      62.828   9.172   5.250  1.00  0.00     0.279 HD
ENDROOT
BRANCH   2  13
HETATM   13  C   UNL     1      64.675   7.318   5.725  1.00  0.00    -0.028 A 
HETATM   14  C   UNL     1      64.669   6.398   6.787  1.00  0.00     0.009 A 
HETATM   15  C   UNL     1      65.746   6.313   7.669  1.00  0.00     0.001 A 
HETATM   16  C   UNL     1      66.846   7.153   7.509  1.00  0.00     0.000 A 
HETATM   17  C   UNL     1      66.861   8.085   6.475  1.00  0.00     0.001 A 
HETATM   18  C   UNL     1      65.784   8.168   5.588  1.00  0.00     0.009 A 
ENDBRANCH   2  13
BRANCH   6  19
HETATM   19  O   UNL     1      61.309   5.799   3.170  1.00  0.00    -0.395 OA
HETATM   20  H   UNL     1      61.758   6.280   2.458  1.00  0.00     0.210 HD
ENDBRANCH   6  19
TORSDOF 2
ENDMDL
MODEL 5
REMARK VINA RESULT:      -5.6      1.392      2.148
REMARK  2 active torsions:
REMARK  status: ('A' for Active; 'I' for Inactive)
REMARK    1  A    between atoms: C_2  and  C_7 
REMARK    2  A    between atoms: C_6  and  O_8 
ROOT
HETATM    1  N   UNL     1      64.332   7.392   3.927  1.00  0.00    -0.058 N 
HETATM    2  C   UNL     1      63.102   7.988   4.458  1.00  0.00     0.222 C 
HETATM    3  C   UNL     1      64.847   6.262   4.718  1.00  0.00     0.129 C 
HETATM    4  C   UNL     1      61.975   6.946   4.543  1.00  0.00     0.069 C 
HETATM    5  C   UNL     1      63.748   5.182   4.868  1.00  0.00     0.070 C 
HETATM    6  C   UNL     1      62.394   5.715   5.338  1.00  0.00     0.122 C 
HETATM    7  C   UNL     1      65.441   6.709   6.077  1.00  0.00     0.039 C 
HETATM    8  C   UNL     1      66.065   5.641   3.970  1.00  0.00     0.039 C 
HETATM    9  C   UNL     1      67.270   5.779   4.895  1.00  0.00     0.002 C 
HETATM   10  C   UNL     1      66.666   5.831   6.282  1.00  0.00     0.002 C 
HETATM   11  H   UNL     1      65.051   8.115   3.898  1.00  0.00     0.279 HD
HETATM   12  H   UNL     1      64.104   7.022   3.004  1.00  0.00     0.279 HD
ENDROOT
BRANCH   2  13
HETATM   13  C   UNL     1      62.654   9.169   3.607  1.00  0.00    -0.028 A 
HETATM   14  C   UNL     1      62.450   9.039   2.222  1.00  0.00     0.009 A 
HETATM   15  C   UNL     1      61.973  10.108   1.464  1.00  0.00     0.001 A 
HETATM   16  C   UNL     1      61.700  11.329   2.075  1.00  0.00     0.000 A 
HETATM   17  C   UNL     1      61.915  11.484   3.442  1.00  0.00     0.001 A 
HETATM   18  C   UNL     1      62.389  10.412   4.204  1.00  0.00     0.009 A 
ENDBRANCH   2  13
BRANCH   6  19
HETATM   19  O   UNL     1      62.393   5.964   6.741  1.00  0.00    -0.395 OA
HETATM   20  H   UNL     1      62.996   5.343   7.180  1.00  0.00     0.210 HD
ENDBRANCH   6  19
TORSDOF 2
ENDMDL
MODEL 6
REMARK VINA RESULT:      -5.2      1.756      2.752
REMARK  2 active torsions:
REMARK  status: ('A' for Active; 'I' for Inactive)
REMARK    1  A    between atoms: C_2  and  C_7 
REMARK    2  A    between atoms: C_6  and  O_8 
ROOT
HETATM    1  N   UNL     1      64.283   6.343   3.832  1.00  0.00    -0.058 N 
HETATM    2  C   UNL     1      64.023   7.644   4.456  1.00  0.00     0.222 C 
HETATM    3  C   UNL     1      65.144   5.450   4.626  1.00  0.00     0.129 C 
HETATM    4  C   UNL     1      63.353   7.474   5.829  1.00  0.00     0.069 C 
HETATM    5  C   UNL     1      64.539   5.258   6.038  1.00  0.00     0.070 C 
HETATM    6  C   UNL     1      64.153   6.557   6.746  1.00  0.00     0.122 C 
HETATM    7  C   UNL     1      66.618   5.924   4.662  1.00  0.00     0.039 C 
HETATM    8  C   UNL     1      65.219   4.065   3.916  1.00  0.00     0.039 C 
HETATM    9  C   UNL     1      66.685   3.825   3.566  1.00  0.00     0.002 C 
HETATM   10  C   UNL     1      67.445   4.650   4.583  1.00  0.00     0.002 C 
HETATM   11  H   UNL     1      64.735   6.504   2.932  1.00  0.00     0.279 HD
HETATM   12  H   UNL     1      63.380   5.875   3.743  1.00  0.00     0.279 HD
ENDROOT
BRANCH   2  13
HETATM   13  C   UNL     1      63.158   8.519   3.560  1.00  0.00    -0.028 A 
HETATM   14  C   UNL     1      62.692   9.774   3.990  1.00  0.00     0.009 A 
HETATM   15  C   UNL     1      61.959  10.598   3.136  1.00  0.00     0.001 A 
HETATM   16  C   UNL     1      61.671  10.178   1.840  1.00  0.00     0.000 A 
HETATM   17  C   UNL     1      62.106   8.930   1.402  1.00  0.00     0.001 A 
HETATM   18  C   UNL     1      62.845   8.105   2.255  1.00  0.00     0.009 A 
ENDBRANCH   2  13
BRANCH   6  19
HETATM   19  O   UNL     1      65.297   7.212   7.286  1.00  0.00    -0.395 OA
HETATM   20  H   UNL     1      66.076   6.644   7.178  1.00  0.00     0.210 HD
ENDBRANCH   6  19
TORSDOF 2
ENDMDL
MODEL 7
REMARK VINA RESULT:      -5.2      2.238      5.744
REMARK  2 active torsions:
REMARK  status: ('A' for Active; 'I' for Inactive)
REMARK    1  A    between atoms: C_2  and  C_7 
REMARK    2  A    between atoms: C_6  and  O_8 
ROOT
HETATM    1  N   UNL     1      63.459   7.484   3.087  1.00  0.00    -0.058 N 
HETATM    2  C   UNL     1      63.258   8.089   4.407  1.00  0.00     0.222 C 
HETATM    3  C   UNL     1      62.384   7.768   2.121  1.00  0.00     0.129 C 
HETATM    4  C   UNL     1      63.137   9.618   4.302  1.00  0.00     0.069 C 
HETATM    5  C   UNL     1      62.189   9.298   1.987  1.00  0.00     0.070 C 
HETATM    6  C   UNL     1      62.053  10.039   3.317  1.00  0.00     0.122 C 
HETATM    7  C   UNL     1      61.070   7.021   2.457  1.00  0.00     0.039 C 
HETATM    8  C   UNL     1      62.793   7.188   0.733  1.00  0.00     0.039 C 
HETATM    9  C   UNL     1      61.740   6.149   0.359  1.00  0.00     0.002 C 
HETATM   10  C   UNL     1      60.504   6.591   1.112  1.00  0.00     0.002 C 
HETATM   11  H   UNL     1      63.523   6.473   3.204  1.00  0.00     0.279 HD
HETATM   12  H   UNL     1      64.312   7.894   2.704  1.00  0.00     0.279 HD
ENDROOT
BRANCH   2  13
HETATM   13  C   UNL     1      64.390   7.721   5.357  1.00  0.00    -0.028 A 
HETATM   14  C   UNL     1      65.662   8.310   5.244  1.00  0.00     0.009 A 
HETATM   15  C   UNL     1      66.672   8.018   6.161  1.00  0.00     0.001 A 
HETATM   16  C   UNL     1      66.430   7.125   7.202  1.00  0.00     0.000 A 
HETATM   17  C   UNL     1      65.184   6.516   7.319  1.00  0.00     0.001 A 
HETATM   18  C   UNL     1      64.170   6.811   6.403  1.00  0.00     0.009 A 
ENDBRANCH   2  13
BRANCH   6  19
HETATM   19  O   UNL     1      60.748   9.884   3.867  1.00  0.00    -0.395 OA
HETATM   20  H   UNL     1      60.095   9.863   3.149  1.00  0.00     0.210 HD
ENDBRANCH   6  19
TORSDOF 2
ENDMDL
MODEL 8
REMARK VINA RESULT:      -5.2      3.195      5.903
REMARK  2 active torsions:
REMARK  status: ('A' for Active; 'I' for Inactive)
REMARK    1  A    between atoms: C_2  and  C_7 
REMARK    2  A    between atoms: C_6  and  O_8 
ROOT
HETATM    1  N   UNL     1      61.900   6.917   4.299  1.00  0.00    -0.058 N 
HETATM    2  C   UNL     1      62.158   6.977   5.741  1.00  0.00     0.222 C 
HETATM    3  C   UNL     1      62.559   7.978   3.521  1.00  0.00     0.129 C 
HETATM    4  C   UNL     1      63.663   6.885   6.038  1.00  0.00     0.069 C 
HETATM    5  C   UNL     1      64.083   7.961   3.795  1.00  0.00     0.070 C 
HETATM    6  C   UNL     1      64.461   7.938   5.277  1.00  0.00     0.122 C 
HETATM    7  C   UNL     1      61.922   9.370   3.754  1.00  0.00     0.039 C 
HETATM    8  C   UNL     1      62.317   7.711   2.004  1.00  0.00     0.039 C 
HETATM    9  C   UNL     1      61.554   8.914   1.459  1.00  0.00     0.002 C 
HETATM   10  C   UNL     1      61.934  10.045   2.391  1.00  0.00     0.002 C 
HETATM   11  H   UNL     1      60.894   6.991   4.151  1.00  0.00     0.279 HD
HETATM   12  H   UNL     1      62.285   6.031   3.970  1.00  0.00     0.279 HD
ENDROOT
BRANCH   2  13
HETATM   13  C   UNL     1      61.414   5.871   6.478  1.00  0.00    -0.028 A 
HETATM   14  C   UNL     1      61.891   4.548   6.488  1.00  0.00     0.009 A 
HETATM   15  C   UNL     1      61.241   3.557   7.223  1.00  0.00     0.001 A 
HETATM   16  C   UNL     1      60.097   3.868   7.953  1.00  0.00     0.000 A 
HETATM   17  C   UNL     1      59.597   5.168   7.939  1.00  0.00     0.001 A 
HETATM   18  C   UNL     1      60.250   6.163   7.207  1.00  0.00     0.009 A 
ENDBRANCH   2  13
BRANCH   6  19
HETATM   19  O   UNL     1      64.332   9.228   5.865  1.00  0.00    -0.395 OA
HETATM   20  H   UNL     1      63.418   9.358   6.166  1.00  0.00     0.210 HD
ENDBRANCH   6  19
TORSDOF 2
ENDMDL
MODEL 9
REMARK VINA RESULT:      -5.1      2.067      2.955
REMARK  2 active torsions:
REMARK  status: ('A' for Active; 'I' for Inactive)
REMARK    1  A    between atoms: C_2  and  C_7 
REMARK    2  A    between atoms: C_6  and  O_8 
ROOT
HETATM    1  N   UNL     1      64.059   6.877   3.854  1.00  0.00    -0.058 N 
HETATM    2  C   UNL     1      62.767   7.551   4.015  1.00  0.00     0.222 C 
HETATM    3  C   UNL     1      64.866   6.814   5.084  1.00  0.00     0.129 C 
HETATM    4  C   UNL     1      61.909   6.855   5.084  1.00  0.00     0.069 C 
HETATM    5  C   UNL     1      64.049   6.145   6.215  1.00  0.00     0.070 C 
HETATM    6  C   UNL     1      62.646   6.723   6.411  1.00  0.00     0.122 C 
HETATM    7  C   UNL     1      65.440   8.194   5.490  1.00  0.00     0.039 C 
HETATM    8  C   UNL     1      66.137   5.955   4.804  1.00  0.00     0.039 C 
HETATM    9  C   UNL     1      67.343   6.861   5.032  1.00  0.00     0.002 C 
HETATM   10  C   UNL     1      66.841   7.905   6.007  1.00  0.00     0.002 C 
HETATM   11  H   UNL     1      64.595   7.377   3.146  1.00  0.00     0.279 HD
HETATM   12  H   UNL     1      63.855   5.913   3.589  1.00  0.00     0.279 HD
ENDROOT
BRANCH   2  13
HETATM   13  C   UNL     1      62.009   7.607   2.695  1.00  0.00    -0.028 A 
HETATM   14  C   UNL     1      62.120   8.711   1.833  1.00  0.00     0.009 A 
HETATM   15  C   UNL     1      61.477   8.722   0.595  1.00  0.00     0.001 A 
HETATM   16  C   UNL     1      60.706   7.631   0.201  1.00  0.00     0.000 A 
HETATM   17  C   UNL     1      60.568   6.537   1.050  1.00  0.00     0.001 A 
HETATM   18  C   UNL     1      61.214   6.523   2.288  1.00  0.00     0.009 A 
ENDBRANCH   2  13
BRANCH   6  19
HETATM   19  O   UNL     1      62.688   7.957   7.120  1.00  0.00    -0.395 OA
HETATM   20  H   UNL     1      62.659   8.694   6.489  1.00  0.00     0.210 HD
ENDBRANCH   6  19
TORSDOF 2
ENDMDL
