MODEL 1
REMARK VINA RESULT:      -4.5      0.000      0.000
REMARK  2 active torsions:
REMARK  status: ('A' for Active; 'I' for Inactive)
REMARK    1  A    between atoms: CA_3  and  C_7 
REMARK    2  A    between atoms: O_5  and  C_7 
ROOT
HETATM    1  N   UNL     1      64.247   9.183   5.378  1.00  0.00    -0.361 N 
ATOM      2  HN  UNL     1      64.877   9.361   6.160  1.00  0.00     0.165 HD
HETATM    3  CA  UNL     1      63.234  10.044   5.083  1.00  0.00     0.033 A 
HETATM    4  C   UNL     1      64.389   8.082   4.601  1.00  0.00     0.005 A 
HETATM    5  C   UNL     1      62.515   8.701   3.241  1.00  0.00     0.004 A 
HETATM    6  C   UNL     1      63.545   7.810   3.528  1.00  0.00     0.024 A 
HETATM    7  C   UNL     1      62.353   9.835   4.027  1.00  0.00     0.027 A 
HETATM    8  C   UNL     1      65.518   7.156   4.942  1.00  0.00     0.068 C 
ENDROOT
BRANCH   3   9
HETATM    9  C   UNL     1      63.097  11.273   5.954  1.00  0.00     0.220 C 
BRANCH   9  10
HETATM   10  O   UNL     1      64.353  11.651   6.518  1.00  0.00    -0.395 OA
HETATM   11  H   UNL     1      64.335  12.594   6.743  1.00  0.00     0.209 HD
ENDBRANCH   9  10
ENDBRANCH   3   9
TORSDOF 2
ENDMDL
MODEL 2
REMARK VINA RESULT:      -4.4      1.698      2.168
REMARK  2 active torsions:
REMARK  status: ('A' for Active; 'I' for Inactive)
REMARK    1  A    between atoms: CA_3  and  C_7 
REMARK    2  A    between atoms: O_5  and  C_7 
ROOT
HETATM    1  N   UNL     1      62.862   9.308   4.064  1.00  0.00    -0.361 N 
ATOM      2  HN  UNL     1      63.276   8.739   4.801  1.00  0.00     0.165 HD
HETATM    3  CA  UNL     1      62.506  10.603   4.292  1.00  0.00     0.033 A 
HETATM    4  C   UNL     1      62.649   8.803   2.824  1.00  0.00     0.005 A 
HETATM    5  C   UNL     1      61.728  10.874   2.049  1.00  0.00     0.004 A 
HETATM    6  C   UNL     1      62.087   9.553   1.797  1.00  0.00     0.024 A 
HETATM    7  C   UNL     1      61.938  11.410   3.313  1.00  0.00     0.027 A 
HETATM    8  C   UNL     1      63.061   7.378   2.597  1.00  0.00     0.068 C 
ENDROOT
BRANCH   3   9
HETATM    9  C   UNL     1      62.761  11.154   5.678  1.00  0.00     0.220 C 
BRANCH   9  10
HETATM   10  O   UNL     1      64.151  11.121   6.001  1.00  0.00    -0.395 OA
HETATM   11  H   UNL     1      64.430  10.201   6.130  1.00  0.00     0.209 HD
ENDBRANCH   9  10
ENDBRANCH   3   9
TORSDOF 2
ENDMDL
MODEL 3
REMARK VINA RESULT:      -4.2      1.751      3.185
REMARK  2 active torsions:
REMARK  status: ('A' for Active; 'I' for Inactive)
REMARK    1  A    between atoms: CA_3  and  C_7 
REMARK    2  A    between atoms: O_5  and  C_7 
ROOT
HETATM    1  N   UNL     1      63.027   8.793   3.275  1.00  0.00    -0.361 N 
ATOM      2  HN  UNL     1      63.348   7.899   2.906  1.00  0.00     0.165 HD
HETATM    3  CA  UNL     1      63.358   9.192   4.534  1.00  0.00     0.033 A 
HETATM    4  C   UNL     1      62.258   9.623   2.530  1.00  0.00     0.005 A 
HETATM    5  C   UNL     1      62.150  11.241   4.295  1.00  0.00     0.004 A 
HETATM    6  C   UNL     1      61.803  10.849   3.005  1.00  0.00     0.024 A 
HETATM    7  C   UNL     1      62.938  10.403   5.074  1.00  0.00     0.027 A 
HETATM    8  C   UNL     1      61.917   9.164   1.143  1.00  0.00     0.068 C 
ENDROOT
BRANCH   3   9
HETATM    9  C   UNL     1      64.226   8.258   5.348  1.00  0.00     0.220 C 
BRANCH   9  10
HETATM   10  O   UNL     1      65.367   8.937   5.873  1.00  0.00    -0.395 OA
HETATM   11  H   UNL     1      65.997   8.287   6.221  1.00  0.00     0.209 HD
ENDBRANCH   9  10
ENDBRANCH   3   9
TORSDOF 2
ENDMDL
MODEL 4
REMARK VINA RESULT:      -4.1      1.072      2.368
REMARK  2 active torsions:
REMARK  status: ('A' for Active; 'I' for Inactive)
REMARK    1  A    between atoms: CA_3  and  C_7 
REMARK    2  A    between atoms: O_5  and  C_7 
ROOT
HETATM    1  N   UNL     1      62.193   9.738   4.233  1.00  0.00    -0.361 N 
ATOM      2  HN  UNL     1      61.422  10.402   4.170  1.00  0.00     0.165 HD
HETATM    3  CA  UNL     1      63.230   9.945   5.091  1.00  0.00     0.033 A 
HETATM    4  C   UNL     1      62.220   8.621   3.465  1.00  0.00     0.005 A 
HETATM    5  C   UNL     1      64.310   7.925   4.410  1.00  0.00     0.004 A 
HETATM    6  C   UNL     1      63.258   7.697   3.527  1.00  0.00     0.024 A 
HETATM    7  C   UNL     1      64.300   9.064   5.205  1.00  0.00     0.027 A 
HETATM    8  C   UNL     1      61.061   8.412   2.536  1.00  0.00     0.068 C 
ENDROOT
BRANCH   3   9
HETATM    9  C   UNL     1      63.178  11.191   5.948  1.00  0.00     0.220 C 
BRANCH   9  10
HETATM   10  O   UNL     1      64.454  11.483   6.516  1.00  0.00    -0.395 OA
HETATM   11  H   UNL     1      64.406  12.319   7.005  1.00  0.00     0.209 HD
ENDBRANCH   9  10
ENDBRANCH   3   9
TORSDOF 2
ENDMDL
MODEL 5
REMARK VINA RESULT:      -3.9      2.415      4.127
REMARK  2 active torsions:
REMARK  status: ('A' for Active; 'I' for Inactive)
REMARK    1  A    between atoms: CA_3  and  C_7 
REMARK    2  A    between atoms: O_5  and  C_7 
ROOT
HETATM    1  N   UNL     1      65.582   7.514   6.961  1.00  0.00    -0.361 N 
ATOM      2  HN  UNL     1      64.796   7.814   7.536  1.00  0.00     0.165 HD
HETATM    3  CA  UNL     1      65.672   7.874   5.651  1.00  0.00     0.033 A 
HETATM    4  C   UNL     1      66.572   6.743   7.475  1.00  0.00     0.005 A 
HETATM    5  C   UNL     1      67.732   6.693   5.379  1.00  0.00     0.004 A 
HETATM    6  C   UNL     1      67.657   6.316   6.716  1.00  0.00     0.024 A 
HETATM    7  C   UNL     1      66.727   7.483   4.834  1.00  0.00     0.027 A 
HETATM    8  C   UNL     1      66.454   6.370   8.923  1.00  0.00     0.068 C 
ENDROOT
BRANCH   3   9
HETATM    9  C   UNL     1      64.565   8.743   5.097  1.00  0.00     0.220 C 
BRANCH   9  10
HETATM   10  O   UNL     1      64.495   9.993   5.783  1.00  0.00    -0.395 OA
HETATM   11  H   UNL     1      65.089   9.975   6.549  1.00  0.00     0.209 HD
ENDBRANCH   9  10
ENDBRANCH   3   9
TORSDOF 2
ENDMDL
MODEL 6
REMARK VINA RESULT:      -3.8      2.941      3.640
REMARK  2 active torsions:
REMARK  status: ('A' for Active; 'I' for Inactive)
REMARK    1  A    between atoms: CA_3  and  C_7 
REMARK    2  A    between atoms: O_5  and  C_7 
ROOT
HETATM    1  N   UNL     1      60.865   8.854   3.564  1.00  0.00    -0.361 N 
ATOM      2  HN  UNL     1      60.538   8.741   4.523  1.00  0.00     0.165 HD
HETATM    3  CA  UNL     1      61.755   9.831   3.235  1.00  0.00     0.033 A 
HETATM    4  C   UNL     1      60.430   8.036   2.574  1.00  0.00     0.005 A 
HETATM    5  C   UNL     1      61.765   9.169   0.939  1.00  0.00     0.004 A 
HETATM    6  C   UNL     1      60.857   8.164   1.256  1.00  0.00     0.024 A 
HETATM    7  C   UNL     1      62.223  10.018   1.939  1.00  0.00     0.027 A 
HETATM    8  C   UNL     1      59.459   6.961   2.965  1.00  0.00     0.068 C 
ENDROOT
BRANCH   3   9
HETATM    9  C   UNL     1      62.238  10.728   4.354  1.00  0.00     0.220 C 
BRANCH   9  10
HETATM   10  O   UNL     1      62.044  12.106   4.034  1.00  0.00    -0.395 OA
HETATM   11  H   UNL     1      61.096  12.310   4.050  1.00  0.00     0.209 HD
ENDBRANCH   9  10
ENDBRANCH   3   9
TORSDOF 2
ENDMDL
MODEL 7
REMARK VINA RESULT:      -3.7      2.760      3.527
REMARK  2 active torsions:
REMARK  status: ('A' for Active; 'I' for Inactive)
REMARK    1  A    between atoms: CA_3  and  C_7 
REMARK    2  A    between atoms: O_5  and  C_7 
ROOT
HETATM    1  N   UNL     1      62.960   8.722   3.285  1.00  0.00    -0.361 N 
ATOM      2  HN  UNL     1      63.170   7.857   2.787  1.00  0.00     0.165 HD
HETATM    3  CA  UNL     1      62.197   9.694   2.712  1.00  0.00     0.033 A 
HETATM    4  C   UNL     1      63.430   8.941   4.537  1.00  0.00     0.005 A 
HETATM    5  C   UNL     1      62.382  11.094   4.640  1.00  0.00     0.004 A 
HETATM    6  C   UNL     1      63.162  10.111   5.242  1.00  0.00     0.024 A 
HETATM    7  C   UNL     1      61.891  10.887   3.357  1.00  0.00     0.027 A 
HETATM    8  C   UNL     1      64.257   7.850   5.148  1.00  0.00     0.068 C 
ENDROOT
BRANCH   3   9
HETATM    9  C   UNL     1      61.672   9.427   1.318  1.00  0.00     0.220 C 
BRANCH   9  10
HETATM   10  O   UNL     1      60.361   8.866   1.358  1.00  0.00    -0.395 OA
HETATM   11  H   UNL     1      60.255   8.241   0.624  1.00  0.00     0.209 HD
ENDBRANCH   9  10
ENDBRANCH   3   9
TORSDOF 2
ENDMDL
MODEL 8
REMARK VINA RESULT:      -3.7      3.359      5.069
REMARK  2 active torsions:
REMARK  status: ('A' for Active; 'I' for Inactive)
REMARK    1  A    between atoms: CA_3  and  C_7 
REMARK    2  A    between atoms: O_5  and  C_7 
ROOT
HETATM    1  N   UNL     1      65.495   7.517   6.868  1.00  0.00    -0.361 N 
ATOM      2  HN  UNL     1      64.674   7.739   7.430  1.00  0.00     0.165 HD
HETATM    3  CA  UNL     1      66.512   6.768   7.377  1.00  0.00     0.033 A 
HETATM    4  C   UNL     1      65.611   7.957   5.592  1.00  0.00     0.005 A 
HETATM    5  C   UNL     1      67.749   6.906   5.336  1.00  0.00     0.004 A 
HETATM    6  C   UNL     1      66.718   7.672   4.799  1.00  0.00     0.024 A 
HETATM    7  C   UNL     1      67.649   6.445   6.643  1.00  0.00     0.027 A 
HETATM    8  C   UNL     1      64.472   8.772   5.053  1.00  0.00     0.068 C 
ENDROOT
BRANCH   3   9
HETATM    9  C   UNL     1      66.362   6.276   8.799  1.00  0.00     0.220 C 
BRANCH   9  10
HETATM   10  O   UNL     1      66.192   4.859   8.842  1.00  0.00    -0.395 OA
HETATM   11  H   UNL     1      67.023   4.442   9.118  1.00  0.00     0.209 HD
ENDBRANCH   9  10
ENDBRANCH   3   9
TORSDOF 2
ENDMDL
MODEL 9
REMARK VINA RESULT:      -3.6     12.555     12.807
REMARK  2 active torsions:
REMARK  status: ('A' for Active; 'I' for Inactive)
REMARK    1  A    between atoms: CA_3  and  C_7 
REMARK    2  A    between atoms: O_5  and  C_7 
ROOT
HETATM    1  N   UNL     1      56.922   2.660  12.283  1.00  0.00    -0.361 N 
ATOM      2  HN  UNL     1      56.170   3.126  11.776  1.00  0.00     0.165 HD
HETATM    3  CA  UNL     1      56.699   2.080  13.494  1.00  0.00     0.033 A 
HETATM    4  C   UNL     1      58.176   2.598  11.772  1.00  0.00     0.005 A 
HETATM    5  C   UNL     1      58.978   1.384  13.676  1.00  0.00     0.004 A 
HETATM    6  C   UNL     1      59.224   1.970  12.438  1.00  0.00     0.024 A 
HETATM    7  C   UNL     1      57.699   1.437  14.216  1.00  0.00     0.027 A 
HETATM    8  C   UNL     1      58.392   3.235  10.432  1.00  0.00     0.068 C 
ENDROOT
BRANCH   3   9
HETATM    9  C   UNL     1      55.291   2.151  14.044  1.00  0.00     0.220 C 
BRANCH   9  10
HETATM   10  O   UNL     1      55.135   3.259  14.930  1.00  0.00    -0.395 OA
HETATM   11  H   UNL     1      55.013   2.934  15.835  1.00  0.00     0.209 HD
ENDBRANCH   9  10
ENDBRANCH   3   9
TORSDOF 2
ENDMDL
