MODEL 1
REMARK VINA RESULT:      -4.8      0.000      0.000
REMARK  1 active torsions:
REMARK  status: ('A' for Active; 'I' for Inactive)
REMARK    1  A    between atoms: C_1  and  N_8 
ROOT
HETATM    1  C   UNL     1      62.968  10.683   5.387  1.00  0.00     0.143 A 
HETATM    2  N   UNL     1      62.319  11.156   4.355  1.00  0.00    -0.336 N 
ATOM      3  HN  UNL     1      61.898  12.084   4.306  1.00  0.00     0.168 HD
HETATM    4  S   UNL     1      63.526   9.069   5.237  1.00  0.00    -0.052 SA
HETATM    5  C   UNL     1      62.903   8.998   3.635  1.00  0.00     0.038 A 
HETATM    6  C   UNL     1      62.284  10.216   3.340  1.00  0.00     0.051 A 
HETATM    7  C   UNL     1      62.956   7.946   2.707  1.00  0.00     0.063 A 
HETATM    8  C   UNL     1      61.696  10.390   2.069  1.00  0.00     0.034 A 
HETATM    9  C   UNL     1      62.372   8.156   1.457  1.00  0.00     0.117 A 
HETATM   10  C   UNL     1      61.749   9.352   1.132  1.00  0.00     0.044 A 
HETATM   11  F   UNL     1      62.414   7.174   0.548  1.00  0.00    -0.206 F 
ENDROOT
BRANCH   1  12
HETATM   12  N   UNL     1      63.193  11.395   6.501  1.00  0.00    -0.380 N 
HETATM   13  H   UNL     1      63.876  12.103   6.502  1.00  0.00     0.158 HD
HETATM   14  H   UNL     1      62.675  11.209   7.317  1.00  0.00     0.158 HD
ENDBRANCH   1  12
TORSDOF 1
ENDMDL
MODEL 2
REMARK VINA RESULT:      -4.5      1.246      1.930
REMARK  1 active torsions:
REMARK  status: ('A' for Active; 'I' for Inactive)
REMARK    1  A    between atoms: C_1  and  N_8 
ROOT
HETATM    1  C   UNL     1      62.991  10.719   5.429  1.00  0.00     0.143 A 
HETATM    2  N   UNL     1      63.492   9.529   5.222  1.00  0.00    -0.336 N 
ATOM      3  HN  UNL     1      64.101   9.031   5.872  1.00  0.00     0.168 HD
HETATM    4  S   UNL     1      62.045  11.360   4.151  1.00  0.00    -0.052 SA
HETATM    5  C   UNL     1      62.265   9.907   3.255  1.00  0.00     0.038 A 
HETATM    6  C   UNL     1      63.077   9.043   3.995  1.00  0.00     0.051 A 
HETATM    7  C   UNL     1      61.759   9.556   1.993  1.00  0.00     0.063 A 
HETATM    8  C   UNL     1      63.395   7.778   3.453  1.00  0.00     0.034 A 
HETATM    9  C   UNL     1      62.087   8.296   1.493  1.00  0.00     0.117 A 
HETATM   10  C   UNL     1      62.891   7.414   2.200  1.00  0.00     0.044 A 
HETATM   11  F   UNL     1      61.612   7.930   0.295  1.00  0.00    -0.206 F 
ENDROOT
BRANCH   1  12
HETATM   12  N   UNL     1      63.194  11.413   6.558  1.00  0.00    -0.380 N 
HETATM   13  H   UNL     1      62.999  11.000   7.430  1.00  0.00     0.158 HD
HETATM   14  H   UNL     1      63.538  12.334   6.516  1.00  0.00     0.158 HD
ENDBRANCH   1  12
TORSDOF 1
ENDMDL
MODEL 3
REMARK VINA RESULT:      -4.5      2.454      2.923
REMARK  1 active torsions:
REMARK  status: ('A' for Active; 'I' for Inactive)
REMARK    1  A    between atoms: C_1  and  N_8 
ROOT
HETATM    1  C   UNL     1      63.315   8.215   5.416  1.00  0.00     0.143 A 
HETATM    2  N   UNL     1      63.133   7.851   4.173  1.00  0.00    -0.336 N 
ATOM      3  HN  UNL     1      63.301   6.913   3.808  1.00  0.00     0.168 HD
HETATM    4  S   UNL     1      63.016   9.868   5.758  1.00  0.00    -0.052 SA
HETATM    5  C   UNL     1      62.546  10.125   4.123  1.00  0.00     0.038 A 
HETATM    6  C   UNL     1      62.680   8.922   3.423  1.00  0.00     0.051 A 
HETATM    7  C   UNL     1      62.092  11.300   3.503  1.00  0.00     0.063 A 
HETATM    8  C   UNL     1      62.347   8.893   2.051  1.00  0.00     0.034 A 
HETATM    9  C   UNL     1      61.764  11.232   2.149  1.00  0.00     0.117 A 
HETATM   10  C   UNL     1      61.887  10.055   1.424  1.00  0.00     0.044 A 
HETATM   11  F   UNL     1      61.321  12.335   1.532  1.00  0.00    -0.206 F 
ENDROOT
BRANCH   1  12
HETATM   12  N   UNL     1      63.711   7.367   6.376  1.00  0.00    -0.380 N 
HETATM   13  H   UNL     1      63.190   7.286   7.207  1.00  0.00     0.158 HD
HETATM   14  H   UNL     1      64.524   6.826   6.251  1.00  0.00     0.158 HD
ENDBRANCH   1  12
TORSDOF 1
ENDMDL
MODEL 4
REMARK VINA RESULT:      -4.5      2.096      2.372
REMARK  1 active torsions:
REMARK  status: ('A' for Active; 'I' for Inactive)
REMARK    1  A    between atoms: C_1  and  N_8 
ROOT
HETATM    1  C   UNL     1      64.000   7.712   5.826  1.00  0.00     0.143 A 
HETATM    2  N   UNL     1      63.392   8.868   5.745  1.00  0.00    -0.336 N 
ATOM      3  HN  UNL     1      63.274   9.521   6.519  1.00  0.00     0.168 HD
HETATM    4  S   UNL     1      64.010   6.775   4.391  1.00  0.00    -0.052 SA
HETATM    5  C   UNL     1      63.181   8.033   3.559  1.00  0.00     0.038 A 
HETATM    6  C   UNL     1      62.932   9.075   4.457  1.00  0.00     0.051 A 
HETATM    7  C   UNL     1      62.781   8.096   2.215  1.00  0.00     0.063 A 
HETATM    8  C   UNL     1      62.257  10.225   3.992  1.00  0.00     0.034 A 
HETATM    9  C   UNL     1      62.125   9.251   1.789  1.00  0.00     0.117 A 
HETATM   10  C   UNL     1      61.861  10.304   2.653  1.00  0.00     0.044 A 
HETATM   11  F   UNL     1      61.739   9.344   0.510  1.00  0.00    -0.206 F 
ENDROOT
BRANCH   1  12
HETATM   12  N   UNL     1      64.583   7.269   6.950  1.00  0.00    -0.380 N 
HETATM   13  H   UNL     1      65.521   7.497   7.140  1.00  0.00     0.158 HD
HETATM   14  H   UNL     1      64.073   6.715   7.583  1.00  0.00     0.158 HD
ENDBRANCH   1  12
TORSDOF 1
ENDMDL
MODEL 5
REMARK VINA RESULT:      -4.3      1.544      2.439
REMARK  1 active torsions:
REMARK  status: ('A' for Active; 'I' for Inactive)
REMARK    1  A    between atoms: C_1  and  N_8 
ROOT
HETATM    1  C   UNL     1      63.259  10.371   5.316  1.00  0.00     0.143 A 
HETATM    2  N   UNL     1      64.110   9.381   5.391  1.00  0.00    -0.336 N 
ATOM      3  HN  UNL     1      64.833   9.285   6.104  1.00  0.00     0.168 HD
HETATM    4  S   UNL     1      62.181  10.327   3.984  1.00  0.00    -0.052 SA
HETATM    5  C   UNL     1      62.858   8.827   3.481  1.00  0.00     0.038 A 
HETATM    6  C   UNL     1      63.887   8.482   4.363  1.00  0.00     0.051 A 
HETATM    7  C   UNL     1      62.508   8.015   2.392  1.00  0.00     0.063 A 
HETATM    8  C   UNL     1      64.593   7.279   4.146  1.00  0.00     0.034 A 
HETATM    9  C   UNL     1      63.221   6.829   2.213  1.00  0.00     0.117 A 
HETATM   10  C   UNL     1      64.248   6.457   3.068  1.00  0.00     0.044 A 
HETATM   11  F   UNL     1      62.904   6.030   1.187  1.00  0.00    -0.206 F 
ENDROOT
BRANCH   1  12
HETATM   12  N   UNL     1      63.217  11.369   6.211  1.00  0.00    -0.380 N 
HETATM   13  H   UNL     1      62.982  11.180   7.148  1.00  0.00     0.158 HD
HETATM   14  H   UNL     1      63.419  12.291   5.932  1.00  0.00     0.158 HD
ENDBRANCH   1  12
TORSDOF 1
ENDMDL
MODEL 6
REMARK VINA RESULT:      -4.3      3.173      3.972
REMARK  1 active torsions:
REMARK  status: ('A' for Active; 'I' for Inactive)
REMARK    1  A    between atoms: C_1  and  N_8 
ROOT
HETATM    1  C   UNL     1      62.904   6.749   2.549  1.00  0.00     0.143 A 
HETATM    2  N   UNL     1      62.567   7.633   1.646  1.00  0.00    -0.336 N 
ATOM      3  HN  UNL     1      62.456   7.439   0.651  1.00  0.00     0.168 HD
HETATM    4  S   UNL     1      63.081   7.346   4.146  1.00  0.00    -0.052 SA
HETATM    5  C   UNL     1      62.614   8.915   3.615  1.00  0.00     0.038 A 
HETATM    6  C   UNL     1      62.381   8.871   2.237  1.00  0.00     0.051 A 
HETATM    7  C   UNL     1      62.463  10.096   4.359  1.00  0.00     0.063 A 
HETATM    8  C   UNL     1      61.983  10.054   1.577  1.00  0.00     0.034 A 
HETATM    9  C   UNL     1      62.059  11.243   3.675  1.00  0.00     0.117 A 
HETATM   10  C   UNL     1      61.821  11.235   2.309  1.00  0.00     0.044 A 
HETATM   11  F   UNL     1      61.899  12.383   4.359  1.00  0.00    -0.206 F 
ENDROOT
BRANCH   1  12
HETATM   12  N   UNL     1      63.106   5.454   2.264  1.00  0.00    -0.380 N 
HETATM   13  H   UNL     1      62.373   4.806   2.375  1.00  0.00     0.158 HD
HETATM   14  H   UNL     1      63.987   5.151   1.946  1.00  0.00     0.158 HD
ENDBRANCH   1  12
TORSDOF 1
ENDMDL
MODEL 7
REMARK VINA RESULT:      -4.3      3.412      4.608
REMARK  1 active torsions:
REMARK  status: ('A' for Active; 'I' for Inactive)
REMARK    1  A    between atoms: C_1  and  N_8 
ROOT
HETATM    1  C   UNL     1      62.640   7.417   1.323  1.00  0.00     0.143 A 
HETATM    2  N   UNL     1      63.112   7.324   2.539  1.00  0.00    -0.336 N 
ATOM      3  HN  UNL     1      63.575   6.500   2.924  1.00  0.00     0.168 HD
HETATM    4  S   UNL     1      61.853   8.892   0.942  1.00  0.00    -0.052 SA
HETATM    5  C   UNL     1      62.216   9.495   2.513  1.00  0.00     0.038 A 
HETATM    6  C   UNL     1      62.894   8.504   3.228  1.00  0.00     0.051 A 
HETATM    7  C   UNL     1      61.924  10.749   3.072  1.00  0.00     0.063 A 
HETATM    8  C   UNL     1      63.296   8.777   4.553  1.00  0.00     0.034 A 
HETATM    9  C   UNL     1      62.344  10.987   4.380  1.00  0.00     0.117 A 
HETATM   10  C   UNL     1      63.018  10.026   5.119  1.00  0.00     0.044 A 
HETATM   11  F   UNL     1      62.087  12.177   4.938  1.00  0.00    -0.206 F 
ENDROOT
BRANCH   1  12
HETATM   12  N   UNL     1      62.750   6.435   0.417  1.00  0.00    -0.380 N 
HETATM   13  H   UNL     1      63.241   5.612   0.642  1.00  0.00     0.158 HD
HETATM   14  H   UNL     1      62.342   6.537  -0.472  1.00  0.00     0.158 HD
ENDBRANCH   1  12
TORSDOF 1
ENDMDL
MODEL 8
REMARK VINA RESULT:      -3.9      6.911      7.714
REMARK  1 active torsions:
REMARK  status: ('A' for Active; 'I' for Inactive)
REMARK    1  A    between atoms: C_1  and  N_8 
ROOT
HETATM    1  C   UNL     1      67.308   3.648   8.361  1.00  0.00     0.143 A 
HETATM    2  N   UNL     1      66.779   4.785   8.730  1.00  0.00    -0.336 N 
ATOM      3  HN  UNL     1      66.343   4.960   9.636  1.00  0.00     0.168 HD
HETATM    4  S   UNL     1      67.922   3.598   6.761  1.00  0.00    -0.052 SA
HETATM    5  C   UNL     1      67.505   5.253   6.545  1.00  0.00     0.038 A 
HETATM    6  C   UNL     1      66.895   5.718   7.715  1.00  0.00     0.051 A 
HETATM    7  C   UNL     1      67.700   6.080   5.428  1.00  0.00     0.063 A 
HETATM    8  C   UNL     1      66.465   7.061   7.769  1.00  0.00     0.034 A 
HETATM    9  C   UNL     1      67.271   7.404   5.521  1.00  0.00     0.117 A 
HETATM   10  C   UNL     1      66.661   7.898   6.665  1.00  0.00     0.044 A 
HETATM   11  F   UNL     1      67.451   8.219   4.474  1.00  0.00    -0.206 F 
ENDROOT
BRANCH   1  12
HETATM   12  N   UNL     1      67.373   2.576   9.165  1.00  0.00    -0.380 N 
HETATM   13  H   UNL     1      66.623   2.365   9.765  1.00  0.00     0.158 HD
HETATM   14  H   UNL     1      68.172   2.001   9.154  1.00  0.00     0.158 HD
ENDBRANCH   1  12
TORSDOF 1
ENDMDL
MODEL 9
REMARK VINA RESULT:      -3.7      3.582      4.257
REMARK  1 active torsions:
REMARK  status: ('A' for Active; 'I' for Inactive)
REMARK    1  A    between atoms: C_1  and  N_8 
ROOT
HETATM    1  C   UNL     1      66.246   7.293   6.949  1.00  0.00     0.143 A 
HETATM    2  N   UNL     1      65.029   6.964   7.298  1.00  0.00    -0.336 N 
ATOM      3  HN  UNL     1      64.754   6.648   8.228  1.00  0.00     0.168 HD
HETATM    4  S   UNL     1      66.455   7.735   5.306  1.00  0.00    -0.052 SA
HETATM    5  C   UNL     1      64.768   7.529   5.032  1.00  0.00     0.038 A 
HETATM    6  C   UNL     1      64.169   7.107   6.223  1.00  0.00     0.051 A 
HETATM    7  C   UNL     1      64.028   7.725   3.856  1.00  0.00     0.063 A 
HETATM    8  C   UNL     1      62.777   6.872   6.238  1.00  0.00     0.034 A 
HETATM    9  C   UNL     1      62.654   7.493   3.910  1.00  0.00     0.117 A 
HETATM   10  C   UNL     1      62.027   7.072   5.074  1.00  0.00     0.044 A 
HETATM   11  F   UNL     1      61.920   7.680   2.805  1.00  0.00    -0.206 F 
ENDROOT
BRANCH   1  12
HETATM   12  N   UNL     1      67.279   7.290   7.804  1.00  0.00    -0.380 N 
HETATM   13  H   UNL     1      68.068   7.850   7.624  1.00  0.00     0.158 HD
HETATM   14  H   UNL     1      67.248   6.727   8.611  1.00  0.00     0.158 HD
ENDBRANCH   1  12
TORSDOF 1
ENDMDL
