MODEL 1
REMARK VINA RESULT:      -4.1      0.000      0.000
REMARK  3 active torsions:
REMARK  status: ('A' for Active; 'I' for Inactive)
REMARK    1  A    between atoms: C_2  and  C_8 
REMARK    2  A    between atoms: C_3  and  C_9 
REMARK    3  A    between atoms: C_8  and  C_9 
ROOT
HETATM    1  S   UNL     1      63.887   6.933   3.248  1.00  0.00    -0.106 SA
HETATM    2  C   UNL     1      63.275   8.357   3.980  1.00  0.00    -0.017 A 
HETATM    3  C   UNL     1      65.329   7.003   4.162  1.00  0.00     0.050 A 
HETATM    4  C   UNL     1      64.164   8.869   4.907  1.00  0.00     0.015 A 
HETATM    5  C   UNL     1      65.353   8.090   5.006  1.00  0.00     0.008 A 
ENDROOT
BRANCH   2   6
HETATM    6  C   UNL     1      61.953   8.932   3.555  1.00  0.00     0.056 C 
BRANCH   6   7
HETATM    7  C   UNL     1      62.051   9.818   2.317  1.00  0.00     0.118 C 
BRANCH   7   8
HETATM    8  C   UNL     1      61.859  11.261   2.685  1.00  0.00     0.172 C 
HETATM    9  O   UNL     1      61.844  12.222   1.935  1.00  0.00    -0.648 OA
HETATM   10  O   UNL     1      61.685  11.427   4.012  1.00  0.00    -0.648 OA
ENDBRANCH   7   8
ENDBRANCH   6   7
ENDBRANCH   2   6
TORSDOF 3
ENDMDL
MODEL 2
REMARK VINA RESULT:      -4.0      2.779      4.470
REMARK  3 active torsions:
REMARK  status: ('A' for Active; 'I' for Inactive)
REMARK    1  A    between atoms: C_2  and  C_8 
REMARK    2  A    between atoms: C_3  and  C_9 
REMARK    3  A    between atoms: C_8  and  C_9 
ROOT
HETATM    1  S   UNL     1      62.073  10.642   3.673  1.00  0.00    -0.106 SA
HETATM    2  C   UNL     1      62.571   9.012   3.488  1.00  0.00    -0.017 A 
HETATM    3  C   UNL     1      61.782  10.812   1.999  1.00  0.00     0.050 A 
HETATM    4  C   UNL     1      62.509   8.614   2.166  1.00  0.00     0.015 A 
HETATM    5  C   UNL     1      62.061   9.657   1.305  1.00  0.00     0.008 A 
ENDROOT
BRANCH   2   6
HETATM    6  C   UNL     1      63.053   8.217   4.669  1.00  0.00     0.056 C 
BRANCH   6   7
HETATM    7  C   UNL     1      64.431   7.599   4.458  1.00  0.00     0.118 C 
BRANCH   7   8
HETATM    8  C   UNL     1      65.489   8.427   5.128  1.00  0.00     0.172 C 
HETATM    9  O   UNL     1      66.697   8.277   5.069  1.00  0.00    -0.648 OA
HETATM   10  O   UNL     1      64.960   9.434   5.852  1.00  0.00    -0.648 OA
ENDBRANCH   7   8
ENDBRANCH   6   7
ENDBRANCH   2   6
TORSDOF 3
ENDMDL
MODEL 3
REMARK VINA RESULT:      -4.0      2.813      4.513
REMARK  3 active torsions:
REMARK  status: ('A' for Active; 'I' for Inactive)
REMARK    1  A    between atoms: C_2  and  C_8 
REMARK    2  A    between atoms: C_3  and  C_9 
REMARK    3  A    between atoms: C_8  and  C_9 
ROOT
HETATM    1  S   UNL     1      62.496   8.719   2.505  1.00  0.00    -0.106 SA
HETATM    2  C   UNL     1      62.538   9.605   3.972  1.00  0.00    -0.017 A 
HETATM    3  C   UNL     1      61.926  10.070   1.629  1.00  0.00     0.050 A 
HETATM    4  C   UNL     1      62.125  10.911   3.784  1.00  0.00     0.015 A 
HETATM    5  C   UNL     1      61.764  11.176   2.431  1.00  0.00     0.008 A 
ENDROOT
BRANCH   2   6
HETATM    6  C   UNL     1      62.934   8.940   5.260  1.00  0.00     0.056 C 
BRANCH   6   7
HETATM    7  C   UNL     1      63.887   7.765   5.064  1.00  0.00     0.118 C 
BRANCH   7   8
HETATM    8  C   UNL     1      65.259   8.111   5.568  1.00  0.00     0.172 C 
HETATM    9  O   UNL     1      65.634   9.177   6.026  1.00  0.00    -0.648 OA
HETATM   10  O   UNL     1      66.110   7.070   5.476  1.00  0.00    -0.648 OA
ENDBRANCH   7   8
ENDBRANCH   6   7
ENDBRANCH   2   6
TORSDOF 3
ENDMDL
MODEL 4
REMARK VINA RESULT:      -3.9      2.999      4.666
REMARK  3 active torsions:
REMARK  status: ('A' for Active; 'I' for Inactive)
REMARK    1  A    between atoms: C_2  and  C_8 
REMARK    2  A    between atoms: C_3  and  C_9 
REMARK    3  A    between atoms: C_8  and  C_9 
ROOT
HETATM    1  S   UNL     1      62.494   8.718   2.519  1.00  0.00    -0.106 SA
HETATM    2  C   UNL     1      62.527   9.796   3.852  1.00  0.00    -0.017 A 
HETATM    3  C   UNL     1      61.883   9.923   1.475  1.00  0.00     0.050 A 
HETATM    4  C   UNL     1      62.078  11.054   3.493  1.00  0.00     0.015 A 
HETATM    5  C   UNL     1      61.699  11.124   2.121  1.00  0.00     0.008 A 
ENDROOT
BRANCH   2   6
HETATM    6  C   UNL     1      62.950   9.321   5.214  1.00  0.00     0.056 C 
BRANCH   6   7
HETATM    7  C   UNL     1      63.934   8.157   5.168  1.00  0.00     0.118 C 
BRANCH   7   8
HETATM    8  C   UNL     1      63.661   7.192   6.286  1.00  0.00     0.172 C 
HETATM    9  O   UNL     1      64.270   6.169   6.547  1.00  0.00    -0.648 OA
HETATM   10  O   UNL     1      62.615   7.577   7.043  1.00  0.00    -0.648 OA
ENDBRANCH   7   8
ENDBRANCH   6   7
ENDBRANCH   2   6
TORSDOF 3
ENDMDL
MODEL 5
REMARK VINA RESULT:      -3.9      2.156      3.696
REMARK  3 active torsions:
REMARK  status: ('A' for Active; 'I' for Inactive)
REMARK    1  A    between atoms: C_2  and  C_8 
REMARK    2  A    between atoms: C_3  and  C_9 
REMARK    3  A    between atoms: C_8  and  C_9 
ROOT
HETATM    1  S   UNL     1      60.761   7.887   3.266  1.00  0.00    -0.106 SA
HETATM    2  C   UNL     1      62.302   8.491   2.820  1.00  0.00    -0.017 A 
HETATM    3  C   UNL     1      60.191   7.966   1.658  1.00  0.00     0.050 A 
HETATM    4  C   UNL     1      62.370   8.742   1.462  1.00  0.00     0.015 A 
HETATM    5  C   UNL     1      61.147   8.447   0.793  1.00  0.00     0.008 A 
ENDROOT
BRANCH   2   6
HETATM    6  C   UNL     1      63.361   8.736   3.857  1.00  0.00     0.056 C 
BRANCH   6   7
HETATM    7  C   UNL     1      62.798   9.208   5.194  1.00  0.00     0.118 C 
BRANCH   7   8
HETATM    8  C   UNL     1      62.971  10.692   5.344  1.00  0.00     0.172 C 
HETATM    9  O   UNL     1      62.258  11.571   4.892  1.00  0.00    -0.648 OA
HETATM   10  O   UNL     1      64.055  11.004   6.081  1.00  0.00    -0.648 OA
ENDBRANCH   7   8
ENDBRANCH   6   7
ENDBRANCH   2   6
TORSDOF 3
ENDMDL
MODEL 6
REMARK VINA RESULT:      -3.9      2.613      4.254
REMARK  3 active torsions:
REMARK  status: ('A' for Active; 'I' for Inactive)
REMARK    1  A    between atoms: C_2  and  C_8 
REMARK    2  A    between atoms: C_3  and  C_9 
REMARK    3  A    between atoms: C_8  and  C_9 
ROOT
HETATM    1  S   UNL     1      60.554   7.165   2.655  1.00  0.00    -0.106 SA
HETATM    2  C   UNL     1      60.729   8.311   1.392  1.00  0.00    -0.017 A 
HETATM    3  C   UNL     1      59.409   6.262   1.766  1.00  0.00     0.050 A 
HETATM    4  C   UNL     1      59.924   7.998   0.313  1.00  0.00     0.015 A 
HETATM    5  C   UNL     1      59.156   6.818   0.533  1.00  0.00     0.008 A 
ENDROOT
BRANCH   2   6
HETATM    6  C   UNL     1      61.627   9.505   1.556  1.00  0.00     0.056 C 
BRANCH   6   7
HETATM    7  C   UNL     1      61.919   9.843   3.015  1.00  0.00     0.118 C 
BRANCH   7   8
HETATM    8  C   UNL     1      61.911  11.330   3.223  1.00  0.00     0.172 C 
HETATM    9  O   UNL     1      61.871  11.930   4.283  1.00  0.00    -0.648 OA
HETATM   10  O   UNL     1      61.964  12.005   2.058  1.00  0.00    -0.648 OA
ENDBRANCH   7   8
ENDBRANCH   6   7
ENDBRANCH   2   6
TORSDOF 3
ENDMDL
MODEL 7
REMARK VINA RESULT:      -3.8      1.989      2.659
REMARK  3 active torsions:
REMARK  status: ('A' for Active; 'I' for Inactive)
REMARK    1  A    between atoms: C_2  and  C_8 
REMARK    2  A    between atoms: C_3  and  C_9 
REMARK    3  A    between atoms: C_8  and  C_9 
ROOT
HETATM    1  S   UNL     1      64.929   6.250   6.680  1.00  0.00    -0.106 SA
HETATM    2  C   UNL     1      64.604   7.612   5.691  1.00  0.00    -0.017 A 
HETATM    3  C   UNL     1      66.609   6.360   6.394  1.00  0.00     0.050 A 
HETATM    4  C   UNL     1      65.767   8.136   5.158  1.00  0.00     0.015 A 
HETATM    5  C   UNL     1      66.924   7.407   5.559  1.00  0.00     0.008 A 
ENDROOT
BRANCH   2   6
HETATM    6  C   UNL     1      63.192   8.065   5.448  1.00  0.00     0.056 C 
BRANCH   6   7
HETATM    7  C   UNL     1      63.080   9.136   4.366  1.00  0.00     0.118 C 
BRANCH   7   8
HETATM    8  C   UNL     1      62.806  10.478   4.980  1.00  0.00     0.172 C 
HETATM    9  O   UNL     1      63.311  10.952   5.984  1.00  0.00    -0.648 OA
HETATM   10  O   UNL     1      61.892  11.179   4.280  1.00  0.00    -0.648 OA
ENDBRANCH   7   8
ENDBRANCH   6   7
ENDBRANCH   2   6
TORSDOF 3
ENDMDL
MODEL 8
REMARK VINA RESULT:      -3.7      2.466      3.975
REMARK  3 active torsions:
REMARK  status: ('A' for Active; 'I' for Inactive)
REMARK    1  A    between atoms: C_2  and  C_8 
REMARK    2  A    between atoms: C_3  and  C_9 
REMARK    3  A    between atoms: C_8  and  C_9 
ROOT
HETATM    1  S   UNL     1      62.961   7.151   2.309  1.00  0.00    -0.106 SA
HETATM    2  C   UNL     1      62.526   8.786   2.584  1.00  0.00    -0.017 A 
HETATM    3  C   UNL     1      62.490   7.232   0.669  1.00  0.00     0.050 A 
HETATM    4  C   UNL     1      62.032   9.376   1.435  1.00  0.00     0.015 A 
HETATM    5  C   UNL     1      62.005   8.474   0.332  1.00  0.00     0.008 A 
ENDROOT
BRANCH   2   6
HETATM    6  C   UNL     1      62.647   9.394   3.953  1.00  0.00     0.056 C 
BRANCH   6   7
HETATM    7  C   UNL     1      63.377   8.497   4.948  1.00  0.00     0.118 C 
BRANCH   7   8
HETATM    8  C   UNL     1      64.697   9.101   5.331  1.00  0.00     0.172 C 
HETATM    9  O   UNL     1      65.808   8.628   5.157  1.00  0.00    -0.648 OA
HETATM   10  O   UNL     1      64.552  10.303   5.923  1.00  0.00    -0.648 OA
ENDBRANCH   7   8
ENDBRANCH   6   7
ENDBRANCH   2   6
TORSDOF 3
ENDMDL
MODEL 9
REMARK VINA RESULT:      -3.6      3.697      4.923
REMARK  3 active torsions:
REMARK  status: ('A' for Active; 'I' for Inactive)
REMARK    1  A    between atoms: C_2  and  C_8 
REMARK    2  A    between atoms: C_3  and  C_9 
REMARK    3  A    between atoms: C_8  and  C_9 
ROOT
HETATM    1  S   UNL     1      67.609   5.555   6.449  1.00  0.00    -0.106 SA
HETATM    2  C   UNL     1      66.983   6.941   7.240  1.00  0.00    -0.017 A 
HETATM    3  C   UNL     1      68.022   4.813   7.932  1.00  0.00     0.050 A 
HETATM    4  C   UNL     1      67.089   6.827   8.614  1.00  0.00     0.015 A 
HETATM    5  C   UNL     1      67.697   5.601   9.012  1.00  0.00     0.008 A 
ENDROOT
BRANCH   2   6
HETATM    6  C   UNL     1      66.460   8.106   6.449  1.00  0.00     0.056 C 
BRANCH   6   7
HETATM    7  C   UNL     1      65.613   7.689   5.250  1.00  0.00     0.118 C 
BRANCH   7   8
HETATM    8  C   UNL     1      64.559   8.721   4.966  1.00  0.00     0.172 C 
HETATM    9  O   UNL     1      63.688   8.676   4.114  1.00  0.00    -0.648 OA
HETATM   10  O   UNL     1      64.651   9.781   5.793  1.00  0.00    -0.648 OA
ENDBRANCH   7   8
ENDBRANCH   6   7
ENDBRANCH   2   6
TORSDOF 3
ENDMDL
