MODEL 1
REMARK VINA RESULT:      -5.4      0.000      0.000
REMARK  2 active torsions:
REMARK  status: ('A' for Active; 'I' for Inactive)
REMARK    1  A    between atoms: S_1  and  C_2 
REMARK    2  A    between atoms: S_1  and  N_8 
ROOT
HETATM    1  C   UNL     1      63.099   8.828   3.743  1.00  0.00     0.077 A 
HETATM    2  C   UNL     1      63.888   9.198   4.833  1.00  0.00     0.064 A 
HETATM    3  C   UNL     1      64.948   8.379   5.207  1.00  0.00     0.103 A 
HETATM    4  C   UNL     1      65.187   7.180   4.523  1.00  0.00     0.102 A 
HETATM    5  O   UNL     1      65.722   8.820   6.249  1.00  0.00    -0.346 OA
HETATM    6  O   UNL     1      66.210   6.326   4.845  1.00  0.00    -0.346 OA
HETATM    7  C   UNL     1      63.325   7.630   3.056  1.00  0.00     0.028 A 
HETATM    8  C   UNL     1      64.380   6.808   3.447  1.00  0.00     0.041 A 
HETATM    9  C   UNL     1      66.959   8.105   6.321  1.00  0.00     0.202 C 
HETATM   10  C   UNL     1      66.729   6.612   6.149  1.00  0.00     0.202 C 
ENDROOT
BRANCH   1  11
HETATM   11  S   UNL     1      61.855   9.939   3.164  1.00  0.00     0.239 S 
HETATM   12  O   UNL     1      62.023  10.157   1.748  1.00  0.00    -0.206 OA
HETATM   13  O   UNL     1      61.703  11.017   4.110  1.00  0.00    -0.206 OA
BRANCH  11  14
HETATM   14  N   UNL     1      60.498   8.970   3.337  1.00  0.00    -0.225 NA
HETATM   15  H   UNL     1      59.668   9.496   3.065  1.00  0.00     0.136 HD
HETATM   16  H   UNL     1      60.411   8.676   4.310  1.00  0.00     0.136 HD
ENDBRANCH  11  14
ENDBRANCH   1  11
TORSDOF 2
ENDMDL
MODEL 2
REMARK VINA RESULT:      -5.0      2.601      5.260
REMARK  2 active torsions:
REMARK  status: ('A' for Active; 'I' for Inactive)
REMARK    1  A    between atoms: S_1  and  C_2 
REMARK    2  A    between atoms: S_1  and  N_8 
ROOT
HETATM    1  C   UNL     1      63.959   8.280   4.549  1.00  0.00     0.077 A 
HETATM    2  C   UNL     1      63.788   7.462   3.431  1.00  0.00     0.064 A 
HETATM    3  C   UNL     1      62.898   7.856   2.438  1.00  0.00     0.103 A 
HETATM    4  C   UNL     1      62.155   9.034   2.584  1.00  0.00     0.102 A 
HETATM    5  O   UNL     1      62.812   7.042   1.338  1.00  0.00    -0.346 OA
HETATM    6  O   UNL     1      61.258   9.474   1.645  1.00  0.00    -0.346 OA
HETATM    7  C   UNL     1      63.218   9.456   4.709  1.00  0.00     0.028 A 
HETATM    8  C   UNL     1      62.317   9.835   3.715  1.00  0.00     0.041 A 
HETATM    9  C   UNL     1      62.155   7.700   0.250  1.00  0.00     0.202 C 
HETATM   10  C   UNL     1      60.911   8.426   0.733  1.00  0.00     0.202 C 
ENDROOT
BRANCH   1  11
HETATM   11  S   UNL     1      65.201   7.869   5.734  1.00  0.00     0.239 S 
HETATM   12  O   UNL     1      65.789   9.079   6.258  1.00  0.00    -0.206 OA
HETATM   13  O   UNL     1      65.989   6.768   5.235  1.00  0.00    -0.206 OA
BRANCH  11  14
HETATM   14  N   UNL     1      64.240   7.242   6.955  1.00  0.00    -0.225 NA
HETATM   15  H   UNL     1      64.824   6.996   7.755  1.00  0.00     0.136 HD
HETATM   16  H   UNL     1      63.759   6.409   6.616  1.00  0.00     0.136 HD
ENDBRANCH  11  14
ENDBRANCH   1  11
TORSDOF 2
ENDMDL
MODEL 3
REMARK VINA RESULT:      -4.9      2.925      4.991
REMARK  2 active torsions:
REMARK  status: ('A' for Active; 'I' for Inactive)
REMARK    1  A    between atoms: S_1  and  C_2 
REMARK    2  A    between atoms: S_1  and  N_8 
ROOT
HETATM    1  C   UNL     1      65.240   7.575   5.306  1.00  0.00     0.077 A 
HETATM    2  C   UNL     1      64.466   8.736   5.299  1.00  0.00     0.064 A 
HETATM    3  C   UNL     1      63.528   8.915   4.289  1.00  0.00     0.103 A 
HETATM    4  C   UNL     1      63.398   7.961   3.271  1.00  0.00     0.102 A 
HETATM    5  O   UNL     1      62.758  10.047   4.364  1.00  0.00    -0.346 OA
HETATM    6  O   UNL     1      62.497   8.081   2.244  1.00  0.00    -0.346 OA
HETATM    7  C   UNL     1      65.123   6.618   4.292  1.00  0.00     0.028 A 
HETATM    8  C   UNL     1      64.190   6.813   3.274  1.00  0.00     0.041 A 
HETATM    9  C   UNL     1      61.617   9.962   3.504  1.00  0.00     0.202 C 
HETATM   10  C   UNL     1      62.011   9.424   2.139  1.00  0.00     0.202 C 
ENDROOT
BRANCH   1  11
HETATM   11  S   UNL     1      66.317   7.266   6.670  1.00  0.00     0.239 S 
HETATM   12  O   UNL     1      67.459   6.506   6.222  1.00  0.00    -0.206 OA
HETATM   13  O   UNL     1      65.532   6.895   7.822  1.00  0.00    -0.206 OA
BRANCH  11  14
HETATM   14  N   UNL     1      66.868   8.822   6.961  1.00  0.00    -0.225 NA
HETATM   15  H   UNL     1      67.838   8.901   6.656  1.00  0.00     0.136 HD
HETATM   16  H   UNL     1      66.808   9.023   7.959  1.00  0.00     0.136 HD
ENDBRANCH  11  14
ENDBRANCH   1  11
TORSDOF 2
ENDMDL
MODEL 4
REMARK VINA RESULT:      -4.6      3.066      4.173
REMARK  2 active torsions:
REMARK  status: ('A' for Active; 'I' for Inactive)
REMARK    1  A    between atoms: S_1  and  C_2 
REMARK    2  A    between atoms: S_1  and  N_8 
ROOT
HETATM    1  C   UNL     1      65.466   6.575   5.814  1.00  0.00     0.077 A 
HETATM    2  C   UNL     1      65.584   6.111   7.126  1.00  0.00     0.064 A 
HETATM    3  C   UNL     1      66.467   5.072   7.397  1.00  0.00     0.103 A 
HETATM    4  C   UNL     1      67.192   4.475   6.358  1.00  0.00     0.102 A 
HETATM    5  O   UNL     1      66.582   4.696   8.710  1.00  0.00    -0.346 OA
HETATM    6  O   UNL     1      68.074   3.444   6.558  1.00  0.00    -0.346 OA
HETATM    7  C   UNL     1      66.181   5.982   4.768  1.00  0.00     0.028 A 
HETATM    8  C   UNL     1      67.053   4.931   5.047  1.00  0.00     0.041 A 
HETATM    9  C   UNL     1      67.743   3.887   8.923  1.00  0.00     0.202 C 
HETATM   10  C   UNL     1      67.870   2.832   7.836  1.00  0.00     0.202 C 
ENDROOT
BRANCH   1  11
HETATM   11  S   UNL     1      64.470   7.995   5.489  1.00  0.00     0.239 S 
HETATM   12  O   UNL     1      63.836   7.857   4.200  1.00  0.00    -0.206 OA
HETATM   13  O   UNL     1      65.189   9.181   5.885  1.00  0.00    -0.206 OA
BRANCH  11  14
HETATM   14  N   UNL     1      63.267   7.772   6.635  1.00  0.00    -0.225 NA
HETATM   15  H   UNL     1      63.404   6.876   7.102  1.00  0.00     0.136 HD
HETATM   16  H   UNL     1      62.355   7.781   6.177  1.00  0.00     0.136 HD
ENDBRANCH  11  14
ENDBRANCH   1  11
TORSDOF 2
ENDMDL
MODEL 5
REMARK VINA RESULT:      -4.5      1.623      2.559
REMARK  2 active torsions:
REMARK  status: ('A' for Active; 'I' for Inactive)
REMARK    1  A    between atoms: S_1  and  C_2 
REMARK    2  A    between atoms: S_1  and  N_8 
ROOT
HETATM    1  C   UNL     1      62.754   8.247   3.251  1.00  0.00     0.077 A 
HETATM    2  C   UNL     1      63.780   7.307   3.367  1.00  0.00     0.064 A 
HETATM    3  C   UNL     1      64.745   7.482   4.353  1.00  0.00     0.103 A 
HETATM    4  C   UNL     1      64.709   8.609   5.183  1.00  0.00     0.102 A 
HETATM    5  O   UNL     1      65.696   6.499   4.457  1.00  0.00    -0.346 OA
HETATM    6  O   UNL     1      65.633   8.843   6.168  1.00  0.00    -0.346 OA
HETATM    7  C   UNL     1      62.711   9.380   4.071  1.00  0.00     0.028 A 
HETATM    8  C   UNL     1      63.691   9.554   5.046  1.00  0.00     0.041 A 
HETATM    9  C   UNL     1      66.410   6.591   5.693  1.00  0.00     0.202 C 
HETATM   10  C   UNL     1      66.799   8.031   5.985  1.00  0.00     0.202 C 
ENDROOT
BRANCH   1  11
HETATM   11  S   UNL     1      61.439   7.949   2.112  1.00  0.00     0.239 S 
HETATM   12  O   UNL     1      60.301   7.410   2.818  1.00  0.00    -0.206 OA
HETATM   13  O   UNL     1      61.973   7.349   0.914  1.00  0.00    -0.206 OA
BRANCH  11  14
HETATM   14  N   UNL     1      61.043   9.527   1.708  1.00  0.00    -0.225 NA
HETATM   15  H   UNL     1      61.081   9.638   0.695  1.00  0.00     0.136 HD
HETATM   16  H   UNL     1      61.705  10.167   2.146  1.00  0.00     0.136 HD
ENDBRANCH  11  14
ENDBRANCH   1  11
TORSDOF 2
ENDMDL
MODEL 6
REMARK VINA RESULT:      -4.3      1.451      2.491
REMARK  2 active torsions:
REMARK  status: ('A' for Active; 'I' for Inactive)
REMARK    1  A    between atoms: S_1  and  C_2 
REMARK    2  A    between atoms: S_1  and  N_8 
ROOT
HETATM    1  C   UNL     1      63.085   8.449   3.569  1.00  0.00     0.077 A 
HETATM    2  C   UNL     1      63.631   7.280   3.037  1.00  0.00     0.064 A 
HETATM    3  C   UNL     1      64.759   6.730   3.636  1.00  0.00     0.103 A 
HETATM    4  C   UNL     1      65.359   7.369   4.728  1.00  0.00     0.102 A 
HETATM    5  O   UNL     1      65.219   5.552   3.106  1.00  0.00    -0.346 OA
HETATM    6  O   UNL     1      66.475   6.882   5.360  1.00  0.00    -0.346 OA
HETATM    7  C   UNL     1      63.679   9.099   4.656  1.00  0.00     0.028 A 
HETATM    8  C   UNL     1      64.818   8.549   5.241  1.00  0.00     0.041 A 
HETATM    9  C   UNL     1      66.140   4.904   3.989  1.00  0.00     0.202 C 
HETATM   10  C   UNL     1      67.138   5.903   4.552  1.00  0.00     0.202 C 
ENDROOT
BRANCH   1  11
HETATM   11  S   UNL     1      61.565   9.063   2.916  1.00  0.00     0.239 S 
HETATM   12  O   UNL     1      60.476   8.222   3.351  1.00  0.00    -0.206 OA
HETATM   13  O   UNL     1      61.758   9.443   1.537  1.00  0.00    -0.206 OA
BRANCH  11  14
HETATM   14  N   UNL     1      61.435  10.493   3.781  1.00  0.00    -0.225 NA
HETATM   15  H   UNL     1      62.250  11.077   3.597  1.00  0.00     0.136 HD
HETATM   16  H   UNL     1      61.384  10.284   4.778  1.00  0.00     0.136 HD
ENDBRANCH  11  14
ENDBRANCH   1  11
TORSDOF 2
ENDMDL
MODEL 7
REMARK VINA RESULT:      -4.2      3.122      5.383
REMARK  2 active torsions:
REMARK  status: ('A' for Active; 'I' for Inactive)
REMARK    1  A    between atoms: S_1  and  C_2 
REMARK    2  A    between atoms: S_1  and  N_8 
ROOT
HETATM    1  C   UNL     1      65.539   7.471   4.734  1.00  0.00     0.077 A 
HETATM    2  C   UNL     1      64.934   6.781   3.681  1.00  0.00     0.064 A 
HETATM    3  C   UNL     1      63.728   7.252   3.173  1.00  0.00     0.103 A 
HETATM    4  C   UNL     1      63.114   8.374   3.741  1.00  0.00     0.102 A 
HETATM    5  O   UNL     1      63.208   6.568   2.104  1.00  0.00    -0.346 OA
HETATM    6  O   UNL     1      61.923   8.885   3.291  1.00  0.00    -0.346 OA
HETATM    7  C   UNL     1      64.932   8.590   5.313  1.00  0.00     0.028 A 
HETATM    8  C   UNL     1      63.716   9.046   4.806  1.00  0.00     0.041 A 
HETATM    9  C   UNL     1      62.182   7.321   1.450  1.00  0.00     0.202 C 
HETATM   10  C   UNL     1      61.235   7.936   2.467  1.00  0.00     0.202 C 
ENDROOT
BRANCH   1  11
HETATM   11  S   UNL     1      67.144   6.975   5.277  1.00  0.00     0.239 S 
HETATM   12  O   UNL     1      67.506   5.731   4.643  1.00  0.00    -0.206 OA
HETATM   13  O   UNL     1      67.253   7.190   6.699  1.00  0.00    -0.206 OA
BRANCH  11  14
HETATM   14  N   UNL     1      68.075   8.165   4.551  1.00  0.00    -0.225 NA
HETATM   15  H   UNL     1      68.932   8.301   5.087  1.00  0.00     0.136 HD
HETATM   16  H   UNL     1      67.549   9.039   4.523  1.00  0.00     0.136 HD
ENDBRANCH  11  14
ENDBRANCH   1  11
TORSDOF 2
ENDMDL
MODEL 8
REMARK VINA RESULT:      -4.1      1.811      2.463
REMARK  2 active torsions:
REMARK  status: ('A' for Active; 'I' for Inactive)
REMARK    1  A    between atoms: S_1  and  C_2 
REMARK    2  A    between atoms: S_1  and  N_8 
ROOT
HETATM    1  C   UNL     1      62.926   8.560   4.191  1.00  0.00     0.077 A 
HETATM    2  C   UNL     1      62.547   7.227   4.357  1.00  0.00     0.064 A 
HETATM    3  C   UNL     1      63.334   6.396   5.146  1.00  0.00     0.103 A 
HETATM    4  C   UNL     1      64.511   6.883   5.727  1.00  0.00     0.102 A 
HETATM    5  O   UNL     1      62.884   5.112   5.319  1.00  0.00    -0.346 OA
HETATM    6  O   UNL     1      65.334   6.115   6.510  1.00  0.00    -0.346 OA
HETATM    7  C   UNL     1      64.103   9.057   4.762  1.00  0.00     0.028 A 
HETATM    8  C   UNL     1      64.894   8.212   5.539  1.00  0.00     0.041 A 
HETATM    9  C   UNL     1      63.556   4.463   6.403  1.00  0.00     0.202 C 
HETATM   10  C   UNL     1      65.052   4.721   6.340  1.00  0.00     0.202 C 
ENDROOT
BRANCH   1  11
HETATM   11  S   UNL     1      61.850   9.659   3.326  1.00  0.00     0.239 S 
HETATM   12  O   UNL     1      62.224   9.705   1.932  1.00  0.00    -0.206 OA
HETATM   13  O   UNL     1      61.642  10.846   4.120  1.00  0.00    -0.206 OA
BRANCH  11  14
HETATM   14  N   UNL     1      60.421   8.787   3.404  1.00  0.00    -0.225 NA
HETATM   15  H   UNL     1      59.907   9.051   4.244  1.00  0.00     0.136 HD
HETATM   16  H   UNL     1      60.633   7.789   3.435  1.00  0.00     0.136 HD
ENDBRANCH  11  14
ENDBRANCH   1  11
TORSDOF 2
ENDMDL
MODEL 9
REMARK VINA RESULT:      -4.0      3.081      4.447
REMARK  2 active torsions:
REMARK  status: ('A' for Active; 'I' for Inactive)
REMARK    1  A    between atoms: S_1  and  C_2 
REMARK    2  A    between atoms: S_1  and  N_8 
ROOT
HETATM    1  C   UNL     1      65.309   6.955   6.003  1.00  0.00     0.077 A 
HETATM    2  C   UNL     1      65.180   5.592   5.727  1.00  0.00     0.064 A 
HETATM    3  C   UNL     1      66.089   4.702   6.287  1.00  0.00     0.103 A 
HETATM    4  C   UNL     1      67.142   5.176   7.079  1.00  0.00     0.102 A 
HETATM    5  O   UNL     1      65.881   3.372   6.026  1.00  0.00    -0.346 OA
HETATM    6  O   UNL     1      68.075   4.352   7.655  1.00  0.00    -0.346 OA
HETATM    7  C   UNL     1      66.360   7.440   6.789  1.00  0.00     0.028 A 
HETATM    8  C   UNL     1      67.276   6.541   7.334  1.00  0.00     0.041 A 
HETATM    9  C   UNL     1      66.636   2.540   6.912  1.00  0.00     0.202 C 
HETATM   10  C   UNL     1      68.060   3.054   7.049  1.00  0.00     0.202 C 
ENDROOT
BRANCH   1  11
HETATM   11  S   UNL     1      64.068   8.071   5.429  1.00  0.00     0.239 S 
HETATM   12  O   UNL     1      62.941   8.046   6.329  1.00  0.00    -0.206 OA
HETATM   13  O   UNL     1      63.932   7.936   3.999  1.00  0.00    -0.206 OA
BRANCH  11  14
HETATM   14  N   UNL     1      64.850   9.531   5.689  1.00  0.00    -0.225 NA
HETATM   15  H   UNL     1      64.490  10.229   5.038  1.00  0.00     0.136 HD
HETATM   16  H   UNL     1      65.852   9.412   5.540  1.00  0.00     0.136 HD
ENDBRANCH  11  14
ENDBRANCH   1  11
TORSDOF 2
ENDMDL
