MODEL 1
REMARK VINA RESULT:      -4.3      0.000      0.000
REMARK  5 active torsions:
REMARK  status: ('A' for Active; 'I' for Inactive)
REMARK    1  A    between atoms: C_1  and  S_8 
REMARK    2  A    between atoms: S_8  and  C_9 
REMARK    3  A    between atoms: C_9  and  C_10 
REMARK    4  A    between atoms: C_10  and  C_12 
REMARK    5  A    between atoms: C_11  and  C_12 
ROOT
HETATM    1  C   UNL     1      66.051   7.671   6.531  1.00  0.00     0.160 A 
HETATM    2  N   UNL     1      65.344   6.854   7.358  1.00  0.00    -0.331 N 
HETATM    3  N   UNL     1      67.215   7.948   7.066  1.00  0.00    -0.279 N 
ATOM      4  HN  UNL     1      67.940   8.540   6.662  1.00  0.00     0.189 HD
HETATM    5  N   UNL     1      67.277   7.291   8.278  1.00  0.00    -0.294 N 
ATOM      6  HN  UNL     1      68.059   7.309   8.934  1.00  0.00     0.187 HD
HETATM    7  C   UNL     1      66.147   6.637   8.435  1.00  0.00     0.199 A 
HETATM    8  H   UNL     1      64.440   6.495   7.207  1.00  0.00     0.168 HD
ENDROOT
BRANCH   1   9
HETATM    9  S   UNL     1      65.396   8.182   5.025  1.00  0.00    -0.092 SA
BRANCH   9  10
HETATM   10  C   UNL     1      63.613   8.076   5.383  1.00  0.00     0.082 C 
BRANCH  10  11
HETATM   11  C   UNL     1      62.880   9.408   5.194  1.00  0.00     0.010 C 
BRANCH  11  12
HETATM   12  C   UNL     1      62.390   9.735   3.778  1.00  0.00     0.000 C 
BRANCH  12  13
HETATM   13  C   UNL     1      61.980  11.196   3.591  1.00  0.00    -0.005 C 
HETATM   14  C   UNL     1      61.830  11.545   2.117  1.00  0.00     0.005 C 
ENDBRANCH  12  13
ENDBRANCH  11  12
ENDBRANCH  10  11
ENDBRANCH   9  10
ENDBRANCH   1   9
TORSDOF 5
ENDMDL
MODEL 2
REMARK VINA RESULT:      -3.9      1.510      1.825
REMARK  5 active torsions:
REMARK  status: ('A' for Active; 'I' for Inactive)
REMARK    1  A    between atoms: C_1  and  S_8 
REMARK    2  A    between atoms: S_8  and  C_9 
REMARK    3  A    between atoms: C_9  and  C_10 
REMARK    4  A    between atoms: C_10  and  C_12 
REMARK    5  A    between atoms: C_11  and  C_12 
ROOT
HETATM    1  C   UNL     1      65.268   7.084   5.681  1.00  0.00     0.160 A 
HETATM    2  N   UNL     1      66.421   7.203   4.969  1.00  0.00    -0.331 N 
HETATM    3  N   UNL     1      65.411   7.639   6.859  1.00  0.00    -0.279 N 
ATOM      4  HN  UNL     1      64.704   7.690   7.593  1.00  0.00     0.189 HD
HETATM    5  N   UNL     1      66.694   8.143   6.923  1.00  0.00    -0.294 N 
ATOM      6  HN  UNL     1      67.109   8.635   7.715  1.00  0.00     0.187 HD
HETATM    7  C   UNL     1      67.284   7.874   5.779  1.00  0.00     0.199 A 
HETATM    8  H   UNL     1      66.594   6.872   4.058  1.00  0.00     0.168 HD
ENDROOT
BRANCH   1   9
HETATM    9  S   UNL     1      63.893   6.301   5.007  1.00  0.00    -0.092 SA
BRANCH   9  10
HETATM   10  C   UNL     1      63.545   7.396   3.592  1.00  0.00     0.082 C 
BRANCH  10  11
HETATM   11  C   UNL     1      63.222   8.834   4.009  1.00  0.00     0.010 C 
BRANCH  11  12
HETATM   12  C   UNL     1      61.947   9.456   3.425  1.00  0.00     0.000 C 
BRANCH  12  13
HETATM   13  C   UNL     1      61.958  10.984   3.412  1.00  0.00    -0.005 C 
HETATM   14  C   UNL     1      61.812  11.527   1.998  1.00  0.00     0.005 C 
ENDBRANCH  12  13
ENDBRANCH  11  12
ENDBRANCH  10  11
ENDBRANCH   9  10
ENDBRANCH   1   9
TORSDOF 5
ENDMDL
MODEL 3
REMARK VINA RESULT:      -3.9      1.413      1.804
REMARK  5 active torsions:
REMARK  status: ('A' for Active; 'I' for Inactive)
REMARK    1  A    between atoms: C_1  and  S_8 
REMARK    2  A    between atoms: S_8  and  C_9 
REMARK    3  A    between atoms: C_9  and  C_10 
REMARK    4  A    between atoms: C_10  and  C_12 
REMARK    5  A    between atoms: C_11  and  C_12 
ROOT
HETATM    1  C   UNL     1      66.748   6.876   7.349  1.00  0.00     0.160 A 
HETATM    2  N   UNL     1      67.905   6.423   7.902  1.00  0.00    -0.331 N 
HETATM    3  N   UNL     1      65.728   6.227   7.854  1.00  0.00    -0.279 N 
ATOM      4  HN  UNL     1      64.746   6.364   7.615  1.00  0.00     0.189 HD
HETATM    5  N   UNL     1      66.228   5.323   8.769  1.00  0.00    -0.294 N 
ATOM      6  HN  UNL     1      65.682   4.669   9.330  1.00  0.00     0.187 HD
HETATM    7  C   UNL     1      67.536   5.457   8.786  1.00  0.00     0.199 A 
HETATM    8  H   UNL     1      68.819   6.731   7.703  1.00  0.00     0.168 HD
ENDROOT
BRANCH   1   9
HETATM    9  S   UNL     1      66.765   8.133   6.174  1.00  0.00    -0.092 SA
BRANCH   9  10
HETATM   10  C   UNL     1      65.235   7.755   5.259  1.00  0.00     0.082 C 
BRANCH  10  11
HETATM   11  C   UNL     1      64.290   8.956   5.145  1.00  0.00     0.010 C 
BRANCH  11  12
HETATM   12  C   UNL     1      63.244   8.911   4.024  1.00  0.00     0.000 C 
BRANCH  12  13
HETATM   13  C   UNL     1      62.240  10.062   4.074  1.00  0.00    -0.005 C 
HETATM   14  C   UNL     1      61.879  10.544   2.676  1.00  0.00     0.005 C 
ENDBRANCH  12  13
ENDBRANCH  11  12
ENDBRANCH  10  11
ENDBRANCH   9  10
ENDBRANCH   1   9
TORSDOF 5
ENDMDL
MODEL 4
REMARK VINA RESULT:      -3.7      3.806      6.525
REMARK  5 active torsions:
REMARK  status: ('A' for Active; 'I' for Inactive)
REMARK    1  A    between atoms: C_1  and  S_8 
REMARK    2  A    between atoms: S_8  and  C_9 
REMARK    3  A    between atoms: C_9  and  C_10 
REMARK    4  A    between atoms: C_10  and  C_12 
REMARK    5  A    between atoms: C_11  and  C_12 
ROOT
HETATM    1  C   UNL     1      62.378   9.890   3.630  1.00  0.00     0.160 A 
HETATM    2  N   UNL     1      62.485   9.095   2.531  1.00  0.00    -0.331 N 
HETATM    3  N   UNL     1      61.734  10.989   3.325  1.00  0.00    -0.279 N 
ATOM      4  HN  UNL     1      61.517  11.758   3.959  1.00  0.00     0.189 HD
HETATM    5  N   UNL     1      61.402  10.914   1.988  1.00  0.00    -0.294 N 
ATOM      6  HN  UNL     1      60.894  11.619   1.452  1.00  0.00     0.187 HD
HETATM    7  C   UNL     1      61.859   9.769   1.528  1.00  0.00     0.199 A 
HETATM    8  H   UNL     1      62.924   8.216   2.474  1.00  0.00     0.168 HD
ENDROOT
BRANCH   1   9
HETATM    9  S   UNL     1      63.033   9.396   5.142  1.00  0.00    -0.092 SA
BRANCH   9  10
HETATM   10  C   UNL     1      64.265   8.172   4.589  1.00  0.00     0.082 C 
BRANCH  10  11
HETATM   11  C   UNL     1      65.503   8.115   5.490  1.00  0.00     0.010 C 
BRANCH  11  12
HETATM   12  C   UNL     1      65.504   7.058   6.601  1.00  0.00     0.000 C 
BRANCH  12  13
HETATM   13  C   UNL     1      66.687   7.177   7.562  1.00  0.00    -0.005 C 
HETATM   14  C   UNL     1      66.431   6.412   8.853  1.00  0.00     0.005 C 
ENDBRANCH  12  13
ENDBRANCH  11  12
ENDBRANCH  10  11
ENDBRANCH   9  10
ENDBRANCH   1   9
TORSDOF 5
ENDMDL
MODEL 5
REMARK VINA RESULT:      -3.7      2.884      5.756
REMARK  5 active torsions:
REMARK  status: ('A' for Active; 'I' for Inactive)
REMARK    1  A    between atoms: C_1  and  S_8 
REMARK    2  A    between atoms: S_8  and  C_9 
REMARK    3  A    between atoms: C_9  and  C_10 
REMARK    4  A    between atoms: C_10  and  C_12 
REMARK    5  A    between atoms: C_11  and  C_12 
ROOT
HETATM    1  C   UNL     1      63.467   9.178   4.670  1.00  0.00     0.160 A 
HETATM    2  N   UNL     1      62.512   9.981   4.127  1.00  0.00    -0.331 N 
HETATM    3  N   UNL     1      64.020   9.775   5.697  1.00  0.00    -0.279 N 
ATOM      4  HN  UNL     1      64.765   9.401   6.285  1.00  0.00     0.189 HD
HETATM    5  N   UNL     1      63.409  11.004   5.837  1.00  0.00    -0.294 N 
ATOM      6  HN  UNL     1      63.620  11.705   6.548  1.00  0.00     0.187 HD
HETATM    7  C   UNL     1      62.505  11.109   4.888  1.00  0.00     0.199 A 
HETATM    8  H   UNL     1      61.946   9.785   3.346  1.00  0.00     0.168 HD
ENDROOT
BRANCH   1   9
HETATM    9  S   UNL     1      63.792   7.624   4.010  1.00  0.00    -0.092 SA
BRANCH   9  10
HETATM   10  C   UNL     1      65.101   7.048   5.139  1.00  0.00     0.082 C 
BRANCH  10  11
HETATM   11  C   UNL     1      66.507   7.169   4.542  1.00  0.00     0.010 C 
BRANCH  11  12
HETATM   12  C   UNL     1      67.684   7.120   5.525  1.00  0.00     0.000 C 
BRANCH  12  13
HETATM   13  C   UNL     1      67.741   5.835   6.352  1.00  0.00    -0.005 C 
HETATM   14  C   UNL     1      67.520   6.118   7.831  1.00  0.00     0.005 C 
ENDBRANCH  12  13
ENDBRANCH  11  12
ENDBRANCH  10  11
ENDBRANCH   9  10
ENDBRANCH   1   9
TORSDOF 5
ENDMDL
MODEL 6
REMARK VINA RESULT:      -3.6      3.496      4.543
REMARK  5 active torsions:
REMARK  status: ('A' for Active; 'I' for Inactive)
REMARK    1  A    between atoms: C_1  and  S_8 
REMARK    2  A    between atoms: S_8  and  C_9 
REMARK    3  A    between atoms: C_9  and  C_10 
REMARK    4  A    between atoms: C_10  and  C_12 
REMARK    5  A    between atoms: C_11  and  C_12 
ROOT
HETATM    1  C   UNL     1      62.725   9.096   4.876  1.00  0.00     0.160 A 
HETATM    2  N   UNL     1      62.078  10.058   4.163  1.00  0.00    -0.331 N 
HETATM    3  N   UNL     1      63.436   9.649   5.828  1.00  0.00    -0.279 N 
ATOM      4  HN  UNL     1      64.020   9.160   6.506  1.00  0.00     0.189 HD
HETATM    5  N   UNL     1      63.248  11.013   5.743  1.00  0.00    -0.294 N 
ATOM      6  HN  UNL     1      63.669  11.718   6.349  1.00  0.00     0.187 HD
HETATM    7  C   UNL     1      62.428  11.240   4.740  1.00  0.00     0.199 A 
HETATM    8  H   UNL     1      61.482   9.925   3.391  1.00  0.00     0.168 HD
ENDROOT
BRANCH   1   9
HETATM    9  S   UNL     1      62.540   7.433   4.481  1.00  0.00    -0.092 SA
BRANCH   9  10
HETATM   10  C   UNL     1      63.531   7.339   2.955  1.00  0.00     0.082 C 
BRANCH  10  11
HETATM   11  C   UNL     1      62.706   6.949   1.724  1.00  0.00     0.010 C 
BRANCH  11  12
HETATM   12  C   UNL     1      62.392   8.063   0.718  1.00  0.00     0.000 C 
BRANCH  12  13
HETATM   13  C   UNL     1      61.095   8.813   1.017  1.00  0.00    -0.005 C 
HETATM   14  C   UNL     1      59.996   7.861   1.469  1.00  0.00     0.005 C 
ENDBRANCH  12  13
ENDBRANCH  11  12
ENDBRANCH  10  11
ENDBRANCH   9  10
ENDBRANCH   1   9
TORSDOF 5
ENDMDL
MODEL 7
REMARK VINA RESULT:      -3.6      3.990      6.251
REMARK  5 active torsions:
REMARK  status: ('A' for Active; 'I' for Inactive)
REMARK    1  A    between atoms: C_1  and  S_8 
REMARK    2  A    between atoms: S_8  and  C_9 
REMARK    3  A    between atoms: C_9  and  C_10 
REMARK    4  A    between atoms: C_10  and  C_12 
REMARK    5  A    between atoms: C_11  and  C_12 
ROOT
HETATM    1  C   UNL     1      61.945   9.527   3.372  1.00  0.00     0.160 A 
HETATM    2  N   UNL     1      61.984   9.728   2.027  1.00  0.00    -0.331 N 
HETATM    3  N   UNL     1      61.820  10.675   3.991  1.00  0.00    -0.279 N 
ATOM      4  HN  UNL     1      61.769  10.815   4.999  1.00  0.00     0.189 HD
HETATM    5  N   UNL     1      61.771  11.660   3.026  1.00  0.00    -0.294 N 
ATOM      6  HN  UNL     1      61.676  12.662   3.191  1.00  0.00     0.187 HD
HETATM    7  C   UNL     1      61.868  11.072   1.853  1.00  0.00     0.199 A 
HETATM    8  H   UNL     1      62.078   9.042   1.326  1.00  0.00     0.168 HD
ENDROOT
BRANCH   1   9
HETATM    9  S   UNL     1      62.046   7.941   4.029  1.00  0.00    -0.092 SA
BRANCH   9  10
HETATM   10  C   UNL     1      63.850   7.684   4.007  1.00  0.00     0.082 C 
BRANCH  10  11
HETATM   11  C   UNL     1      64.608   8.658   4.916  1.00  0.00     0.010 C 
BRANCH  11  12
HETATM   12  C   UNL     1      65.742   8.073   5.767  1.00  0.00     0.000 C 
BRANCH  12  13
HETATM   13  C   UNL     1      66.991   7.715   4.963  1.00  0.00    -0.005 C 
HETATM   14  C   UNL     1      67.785   6.604   5.637  1.00  0.00     0.005 C 
ENDBRANCH  12  13
ENDBRANCH  11  12
ENDBRANCH  10  11
ENDBRANCH   9  10
ENDBRANCH   1   9
TORSDOF 5
ENDMDL
MODEL 8
REMARK VINA RESULT:      -3.6      2.641      3.619
REMARK  5 active torsions:
REMARK  status: ('A' for Active; 'I' for Inactive)
REMARK    1  A    between atoms: C_1  and  S_8 
REMARK    2  A    between atoms: S_8  and  C_9 
REMARK    3  A    between atoms: C_9  and  C_10 
REMARK    4  A    between atoms: C_10  and  C_12 
REMARK    5  A    between atoms: C_11  and  C_12 
ROOT
HETATM    1  C   UNL     1      63.505   9.151   5.485  1.00  0.00     0.160 A 
HETATM    2  N   UNL     1      64.793   8.796   5.228  1.00  0.00    -0.331 N 
HETATM    3  N   UNL     1      62.958   8.284   6.302  1.00  0.00    -0.279 N 
ATOM      4  HN  UNL     1      62.003   8.308   6.656  1.00  0.00     0.189 HD
HETATM    5  N   UNL     1      63.915   7.333   6.594  1.00  0.00    -0.294 N 
ATOM      6  HN  UNL     1      63.795   6.525   7.205  1.00  0.00     0.187 HD
HETATM    7  C   UNL     1      65.010   7.659   5.943  1.00  0.00     0.199 A 
HETATM    8  H   UNL     1      65.433   9.265   4.645  1.00  0.00     0.168 HD
ENDROOT
BRANCH   1   9
HETATM    9  S   UNL     1      62.823  10.563   4.781  1.00  0.00    -0.092 SA
BRANCH   9  10
HETATM   10  C   UNL     1      61.630   9.817   3.623  1.00  0.00     0.082 C 
BRANCH  10  11
HETATM   11  C   UNL     1      62.295   8.932   2.563  1.00  0.00     0.010 C 
BRANCH  11  12
HETATM   12  C   UNL     1      61.895   9.180   1.103  1.00  0.00     0.000 C 
BRANCH  12  13
HETATM   13  C   UNL     1      62.079   7.960   0.200  1.00  0.00    -0.005 C 
HETATM   14  C   UNL     1      62.703   6.798   0.959  1.00  0.00     0.005 C 
ENDBRANCH  12  13
ENDBRANCH  11  12
ENDBRANCH  10  11
ENDBRANCH   9  10
ENDBRANCH   1   9
TORSDOF 5
ENDMDL
MODEL 9
REMARK VINA RESULT:      -3.5     12.695     13.885
REMARK  5 active torsions:
REMARK  status: ('A' for Active; 'I' for Inactive)
REMARK    1  A    between atoms: C_1  and  S_8 
REMARK    2  A    between atoms: S_8  and  C_9 
REMARK    3  A    between atoms: C_9  and  C_10 
REMARK    4  A    between atoms: C_10  and  C_12 
REMARK    5  A    between atoms: C_11  and  C_12 
ROOT
HETATM    1  C   UNL     1      55.582   1.661  13.511  1.00  0.00     0.160 A 
HETATM    2  N   UNL     1      55.484   2.847  12.853  1.00  0.00    -0.331 N 
HETATM    3  N   UNL     1      55.068   1.773  14.711  1.00  0.00    -0.279 N 
ATOM      4  HN  UNL     1      55.013   1.038  15.416  1.00  0.00     0.189 HD
HETATM    5  N   UNL     1      54.613   3.069  14.845  1.00  0.00    -0.294 N 
ATOM      6  HN  UNL     1      54.160   3.467  15.668  1.00  0.00     0.187 HD
HETATM    7  C   UNL     1      54.869   3.698  13.718  1.00  0.00     0.199 A 
HETATM    8  H   UNL     1      55.793   3.048  11.940  1.00  0.00     0.168 HD
ENDROOT
BRANCH   1   9
HETATM    9  S   UNL     1      56.295   0.290  12.756  1.00  0.00    -0.092 SA
BRANCH   9  10
HETATM   10  C   UNL     1      57.665  -0.052  13.908  1.00  0.00     0.082 C 
BRANCH  10  11
HETATM   11  C   UNL     1      58.481   1.196  14.260  1.00  0.00     0.010 C 
BRANCH  11  12
HETATM   12  C   UNL     1      59.596   1.594  13.286  1.00  0.00     0.000 C 
BRANCH  12  13
HETATM   13  C   UNL     1      59.921   0.516  12.251  1.00  0.00    -0.005 C 
HETATM   14  C   UNL     1      61.227  -0.193  12.582  1.00  0.00     0.005 C 
ENDBRANCH  12  13
ENDBRANCH  11  12
ENDBRANCH  10  11
ENDBRANCH   9  10
ENDBRANCH   1   9
TORSDOF 5
ENDMDL
