MODEL 1
REMARK VINA RESULT:      -5.1      0.000      0.000
REMARK  1 active torsions:
REMARK  status: ('A' for Active; 'I' for Inactive)
REMARK    1  A    between atoms: C_8  and  N_10 
ROOT
HETATM    1  C   UNL     1      62.755   8.920   3.391  1.00  0.00     0.020 A 
HETATM    2  N   UNL     1      63.080   9.558   5.681  1.00  0.00    -0.300 N 
ATOM      3  HN  UNL     1      62.977  10.250   6.423  1.00  0.00     0.187 HD
HETATM    4  N   UNL     1      63.631   8.338   5.970  1.00  0.00    -0.305 N 
ATOM      5  HN  UNL     1      63.933   8.125   6.921  1.00  0.00     0.186 HD
HETATM    6  C   UNL     1      62.673   9.859   4.439  1.00  0.00     0.060 A 
HETATM    7  C   UNL     1      63.336   7.676   3.705  1.00  0.00     0.042 A 
HETATM    8  C   UNL     1      62.273   9.265   2.098  1.00  0.00     0.038 A 
HETATM    9  C   UNL     1      63.771   7.422   4.995  1.00  0.00     0.023 A 
HETATM   10  C   UNL     1      61.795  11.506   2.888  1.00  0.00     0.005 A 
HETATM   11  C   UNL     1      61.861  10.581   1.853  1.00  0.00     0.030 A 
HETATM   12  C   UNL     1      62.179  11.130   4.172  1.00  0.00     0.032 A 
HETATM   13  C   UNL     1      64.434   6.129   5.344  1.00  0.00     0.070 C 
ENDROOT
BRANCH   8  14
HETATM   14  N   UNL     1      62.389   8.389   0.998  1.00  0.00    -0.398 N 
HETATM   15  H   UNL     1      62.458   7.419   1.146  1.00  0.00     0.156 HD
HETATM   16  H   UNL     1      62.399   8.749   0.081  1.00  0.00     0.156 HD
ENDBRANCH   8  14
TORSDOF 1
ENDMDL
MODEL 2
REMARK VINA RESULT:      -4.9      2.038      3.672
REMARK  1 active torsions:
REMARK  status: ('A' for Active; 'I' for Inactive)
REMARK    1  A    between atoms: C_8  and  N_10 
ROOT
HETATM    1  C   UNL     1      62.698   8.554   2.830  1.00  0.00     0.020 A 
HETATM    2  N   UNL     1      61.523  10.511   2.093  1.00  0.00    -0.300 N 
ATOM      3  HN  UNL     1      60.991  10.996   1.371  1.00  0.00     0.187 HD
HETATM    4  N   UNL     1      61.742  11.127   3.297  1.00  0.00    -0.305 N 
ATOM      5  HN  UNL     1      61.373  12.063   3.468  1.00  0.00     0.186 HD
HETATM    6  C   UNL     1      61.996   9.280   1.848  1.00  0.00     0.060 A 
HETATM    7  C   UNL     1      62.925   9.208   4.056  1.00  0.00     0.042 A 
HETATM    8  C   UNL     1      63.146   7.235   2.543  1.00  0.00     0.038 A 
HETATM    9  C   UNL     1      62.444  10.492   4.252  1.00  0.00     0.023 A 
HETATM   10  C   UNL     1      62.327   7.464   0.273  1.00  0.00     0.005 A 
HETATM   11  C   UNL     1      63.009   6.736   1.241  1.00  0.00     0.030 A 
HETATM   12  C   UNL     1      61.809   8.716   0.593  1.00  0.00     0.032 A 
HETATM   13  C   UNL     1      62.711  11.228   5.526  1.00  0.00     0.070 C 
ENDROOT
BRANCH   8  14
HETATM   14  N   UNL     1      63.909   6.485   3.464  1.00  0.00    -0.398 N 
HETATM   15  H   UNL     1      64.075   5.529   3.302  1.00  0.00     0.156 HD
HETATM   16  H   UNL     1      64.275   6.919   4.268  1.00  0.00     0.156 HD
ENDBRANCH   8  14
TORSDOF 1
ENDMDL
MODEL 3
REMARK VINA RESULT:      -4.8      1.661      3.643
REMARK  1 active torsions:
REMARK  status: ('A' for Active; 'I' for Inactive)
REMARK    1  A    between atoms: C_8  and  N_10 
ROOT
HETATM    1  C   UNL     1      62.769   9.076   3.381  1.00  0.00     0.020 A 
HETATM    2  N   UNL     1      61.254  10.588   2.297  1.00  0.00    -0.300 N 
ATOM      3  HN  UNL     1      60.784  11.492   2.273  1.00  0.00     0.187 HD
HETATM    4  N   UNL     1      61.051   9.696   1.279  1.00  0.00    -0.305 N 
ATOM      5  HN  UNL     1      60.434   9.936   0.503  1.00  0.00     0.186 HD
HETATM    6  C   UNL     1      62.063  10.294   3.326  1.00  0.00     0.060 A 
HETATM    7  C   UNL     1      62.536   8.166   2.332  1.00  0.00     0.042 A 
HETATM    8  C   UNL     1      63.649   8.821   4.469  1.00  0.00     0.038 A 
HETATM    9  C   UNL     1      61.668   8.501   1.306  1.00  0.00     0.023 A 
HETATM   10  C   UNL     1      62.978  10.916   5.485  1.00  0.00     0.005 A 
HETATM   11  C   UNL     1      63.688   9.723   5.540  1.00  0.00     0.030 A 
HETATM   12  C   UNL     1      62.193  11.200   4.371  1.00  0.00     0.032 A 
HETATM   13  C   UNL     1      61.366   7.535   0.206  1.00  0.00     0.070 C 
ENDROOT
BRANCH   8  14
HETATM   14  N   UNL     1      64.331   7.594   4.609  1.00  0.00    -0.398 N 
HETATM   15  H   UNL     1      64.947   7.290   3.904  1.00  0.00     0.156 HD
HETATM   16  H   UNL     1      64.192   7.042   5.412  1.00  0.00     0.156 HD
ENDBRANCH   8  14
TORSDOF 1
ENDMDL
MODEL 4
REMARK VINA RESULT:      -4.6      2.558      5.433
REMARK  1 active torsions:
REMARK  status: ('A' for Active; 'I' for Inactive)
REMARK    1  A    between atoms: C_8  and  N_10 
ROOT
HETATM    1  C   UNL     1      65.900   7.574   5.613  1.00  0.00     0.020 A 
HETATM    2  N   UNL     1      63.913   7.190   6.900  1.00  0.00    -0.300 N 
ATOM      3  HN  UNL     1      63.458   6.765   7.708  1.00  0.00     0.187 HD
HETATM    4  N   UNL     1      63.179   7.974   6.050  1.00  0.00    -0.305 N 
ATOM      5  HN  UNL     1      62.187   8.131   6.226  1.00  0.00     0.186 HD
HETATM    6  C   UNL     1      65.219   6.972   6.690  1.00  0.00     0.060 A 
HETATM    7  C   UNL     1      65.127   8.366   4.742  1.00  0.00     0.042 A 
HETATM    8  C   UNL     1      67.295   7.350   5.450  1.00  0.00     0.038 A 
HETATM    9  C   UNL     1      63.774   8.537   4.983  1.00  0.00     0.023 A 
HETATM   10  C   UNL     1      67.256   5.820   7.329  1.00  0.00     0.005 A 
HETATM   11  C   UNL     1      67.938   6.420   6.277  1.00  0.00     0.030 A 
HETATM   12  C   UNL     1      65.913   6.119   7.538  1.00  0.00     0.032 A 
HETATM   13  C   UNL     1      62.920   9.333   4.048  1.00  0.00     0.070 C 
ENDROOT
BRANCH   8  14
HETATM   14  N   UNL     1      68.015   7.874   4.355  1.00  0.00    -0.398 N 
HETATM   15  H   UNL     1      68.261   7.289   3.603  1.00  0.00     0.156 HD
HETATM   16  H   UNL     1      68.271   8.825   4.344  1.00  0.00     0.156 HD
ENDBRANCH   8  14
TORSDOF 1
ENDMDL
MODEL 5
REMARK VINA RESULT:      -4.4      3.317      4.647
REMARK  1 active torsions:
REMARK  status: ('A' for Active; 'I' for Inactive)
REMARK    1  A    between atoms: C_8  and  N_10 
ROOT
HETATM    1  C   UNL     1      64.954   6.677   6.542  1.00  0.00     0.020 A 
HETATM    2  N   UNL     1      66.509   8.502   6.593  1.00  0.00    -0.300 N 
ATOM      3  HN  UNL     1      66.812   9.408   6.237  1.00  0.00     0.187 HD
HETATM    4  N   UNL     1      67.205   7.915   7.616  1.00  0.00    -0.305 N 
ATOM      5  HN  UNL     1      68.019   8.382   8.017  1.00  0.00     0.186 HD
HETATM    6  C   UNL     1      65.436   7.908   6.053  1.00  0.00     0.060 A 
HETATM    7  C   UNL     1      65.690   6.082   7.584  1.00  0.00     0.042 A 
HETATM    8  C   UNL     1      63.787   6.101   5.968  1.00  0.00     0.038 A 
HETATM    9  C   UNL     1      66.811   6.719   8.089  1.00  0.00     0.023 A 
HETATM   10  C   UNL     1      63.711   7.900   4.346  1.00  0.00     0.005 A 
HETATM   11  C   UNL     1      63.222   6.693   4.831  1.00  0.00     0.030 A 
HETATM   12  C   UNL     1      64.796   8.505   4.975  1.00  0.00     0.032 A 
HETATM   13  C   UNL     1      67.638   6.087   9.163  1.00  0.00     0.070 C 
ENDROOT
BRANCH   8  14
HETATM   14  N   UNL     1      63.297   4.841   6.373  1.00  0.00    -0.398 N 
HETATM   15  H   UNL     1      63.751   4.018   6.080  1.00  0.00     0.156 HD
HETATM   16  H   UNL     1      62.500   4.784   6.949  1.00  0.00     0.156 HD
ENDBRANCH   8  14
TORSDOF 1
ENDMDL
MODEL 6
REMARK VINA RESULT:      -4.3      1.822      4.544
REMARK  1 active torsions:
REMARK  status: ('A' for Active; 'I' for Inactive)
REMARK    1  A    between atoms: C_8  and  N_10 
ROOT
HETATM    1  C   UNL     1      62.704   8.315   4.655  1.00  0.00     0.020 A 
HETATM    2  N   UNL     1      60.588   7.869   3.617  1.00  0.00    -0.300 N 
ATOM      3  HN  UNL     1      59.757   7.284   3.534  1.00  0.00     0.187 HD
HETATM    4  N   UNL     1      60.694   9.000   2.854  1.00  0.00    -0.305 N 
ATOM      5  HN  UNL     1      59.946   9.255   2.209  1.00  0.00     0.186 HD
HETATM    6  C   UNL     1      61.558   7.516   4.474  1.00  0.00     0.060 A 
HETATM    7  C   UNL     1      62.802   9.468   3.852  1.00  0.00     0.042 A 
HETATM    8  C   UNL     1      63.689   7.927   5.604  1.00  0.00     0.038 A 
HETATM    9  C   UNL     1      61.789   9.775   2.958  1.00  0.00     0.023 A 
HETATM   10  C   UNL     1      62.447   5.892   6.042  1.00  0.00     0.005 A 
HETATM   11  C   UNL     1      63.574   6.682   6.236  1.00  0.00     0.030 A 
HETATM   12  C   UNL     1      61.442   6.327   5.183  1.00  0.00     0.032 A 
HETATM   13  C   UNL     1      61.889  10.966   2.060  1.00  0.00     0.070 C 
ENDROOT
BRANCH   8  14
HETATM   14  N   UNL     1      64.886   8.653   5.782  1.00  0.00    -0.398 N 
HETATM   15  H   UNL     1      65.200   9.264   5.077  1.00  0.00     0.156 HD
HETATM   16  H   UNL     1      65.408   8.548   6.610  1.00  0.00     0.156 HD
ENDBRANCH   8  14
TORSDOF 1
ENDMDL
MODEL 7
REMARK VINA RESULT:      -4.3      3.672      6.921
REMARK  1 active torsions:
REMARK  status: ('A' for Active; 'I' for Inactive)
REMARK    1  A    between atoms: C_8  and  N_10 
ROOT
HETATM    1  C   UNL     1      66.430   5.734   6.907  1.00  0.00     0.020 A 
HETATM    2  N   UNL     1      66.978   7.963   7.604  1.00  0.00    -0.300 N 
ATOM      3  HN  UNL     1      67.495   8.588   8.222  1.00  0.00     0.187 HD
HETATM    4  N   UNL     1      66.179   8.493   6.626  1.00  0.00    -0.305 N 
ATOM      5  HN  UNL     1      66.106   9.505   6.517  1.00  0.00     0.186 HD
HETATM    6  C   UNL     1      67.091   6.636   7.764  1.00  0.00     0.060 A 
HETATM    7  C   UNL     1      65.603   6.298   5.916  1.00  0.00     0.042 A 
HETATM    8  C   UNL     1      66.610   4.335   7.085  1.00  0.00     0.038 A 
HETATM    9  C   UNL     1      65.493   7.674   5.809  1.00  0.00     0.023 A 
HETATM   10  C   UNL     1      67.964   4.771   9.047  1.00  0.00     0.005 A 
HETATM   11  C   UNL     1      67.326   3.875   8.198  1.00  0.00     0.030 A 
HETATM   12  C   UNL     1      67.859   6.139   8.808  1.00  0.00     0.032 A 
HETATM   13  C   UNL     1      64.586   8.298   4.797  1.00  0.00     0.070 C 
ENDROOT
BRANCH   8  14
HETATM   14  N   UNL     1      65.924   3.385   6.299  1.00  0.00    -0.398 N 
HETATM   15  H   UNL     1      65.494   2.610   6.727  1.00  0.00     0.156 HD
HETATM   16  H   UNL     1      65.874   3.497   5.322  1.00  0.00     0.156 HD
ENDBRANCH   8  14
TORSDOF 1
ENDMDL
MODEL 8
REMARK VINA RESULT:      -4.2      1.993      3.857
REMARK  1 active torsions:
REMARK  status: ('A' for Active; 'I' for Inactive)
REMARK    1  A    between atoms: C_8  and  N_10 
ROOT
HETATM    1  C   UNL     1      63.261   7.823   3.117  1.00  0.00     0.020 A 
HETATM    2  N   UNL     1      62.095   9.837   3.701  1.00  0.00    -0.300 N 
ATOM      3  HN  UNL     1      62.013  10.665   4.291  1.00  0.00     0.187 HD
HETATM    4  N   UNL     1      61.196   9.641   2.687  1.00  0.00    -0.305 N 
ATOM      5  HN  UNL     1      60.453  10.321   2.523  1.00  0.00     0.186 HD
HETATM    6  C   UNL     1      63.082   8.959   3.933  1.00  0.00     0.060 A 
HETATM    7  C   UNL     1      62.319   7.632   2.088  1.00  0.00     0.042 A 
HETATM    8  C   UNL     1      64.346   6.939   3.372  1.00  0.00     0.038 A 
HETATM    9  C   UNL     1      61.299   8.550   1.907  1.00  0.00     0.023 A 
HETATM   10  C   UNL     1      64.938   8.248   5.324  1.00  0.00     0.005 A 
HETATM   11  C   UNL     1      65.130   7.133   4.516  1.00  0.00     0.030 A 
HETATM   12  C   UNL     1      63.934   9.159   5.011  1.00  0.00     0.032 A 
HETATM   13  C   UNL     1      60.258   8.347   0.852  1.00  0.00     0.070 C 
ENDROOT
BRANCH   8  14
HETATM   14  N   UNL     1      64.536   5.754   2.630  1.00  0.00    -0.398 N 
HETATM   15  H   UNL     1      63.881   5.492   1.944  1.00  0.00     0.156 HD
HETATM   16  H   UNL     1      65.325   5.190   2.798  1.00  0.00     0.156 HD
ENDBRANCH   8  14
TORSDOF 1
ENDMDL
MODEL 9
REMARK VINA RESULT:      -4.1      1.581      4.196
REMARK  1 active torsions:
REMARK  status: ('A' for Active; 'I' for Inactive)
REMARK    1  A    between atoms: C_8  and  N_10 
ROOT
HETATM    1  C   UNL     1      64.296   7.563   3.975  1.00  0.00     0.020 A 
HETATM    2  N   UNL     1      64.684   9.002   5.855  1.00  0.00    -0.300 N 
ATOM      3  HN  UNL     1      65.217   9.225   6.695  1.00  0.00     0.187 HD
HETATM    4  N   UNL     1      63.683   9.844   5.450  1.00  0.00    -0.305 N 
ATOM      5  HN  UNL     1      63.476  10.688   5.985  1.00  0.00     0.186 HD
HETATM    6  C   UNL     1      64.976   7.889   5.166  1.00  0.00     0.060 A 
HETATM    7  C   UNL     1      63.261   8.433   3.582  1.00  0.00     0.042 A 
HETATM    8  C   UNL     1      64.665   6.395   3.252  1.00  0.00     0.038 A 
HETATM    9  C   UNL     1      62.975   9.554   4.343  1.00  0.00     0.023 A 
HETATM   10  C   UNL     1      66.255   5.834   4.993  1.00  0.00     0.005 A 
HETATM   11  C   UNL     1      65.598   5.513   3.812  1.00  0.00     0.030 A 
HETATM   12  C   UNL     1      65.954   7.027   5.644  1.00  0.00     0.032 A 
HETATM   13  C   UNL     1      61.852  10.469   3.975  1.00  0.00     0.070 C 
ENDROOT
BRANCH   8  14
HETATM   14  N   UNL     1      63.977   5.985   2.090  1.00  0.00    -0.398 N 
HETATM   15  H   UNL     1      64.015   5.044   1.802  1.00  0.00     0.156 HD
HETATM   16  H   UNL     1      63.460   6.639   1.567  1.00  0.00     0.156 HD
ENDBRANCH   8  14
TORSDOF 1
ENDMDL
