MODEL 1
REMARK VINA RESULT:      -5.8      0.000      0.000
REMARK  2 active torsions:
REMARK  status: ('A' for Active; 'I' for Inactive)
REMARK    1  A    between atoms: C_1  and  C_2 
REMARK    2  A    between atoms: C_14  and  O_16 
ROOT
HETATM    1  C   UNL     1      62.493   9.604   3.163  1.00  0.00     0.066 A 
HETATM    2  C   UNL     1      63.771   8.206   4.747  1.00  0.00     0.093 A 
HETATM    3  C   UNL     1      63.195   8.346   3.477  1.00  0.00     0.013 A 
HETATM    4  O   UNL     1      63.690   9.226   5.716  1.00  0.00    -0.275 OA
HETATM    5  C   UNL     1      63.035  10.412   5.453  1.00  0.00     0.289 A 
HETATM    6  C   UNL     1      62.441  10.550   4.117  1.00  0.00     0.099 A 
HETATM    7  C   UNL     1      64.458   7.055   5.141  1.00  0.00     0.074 A 
HETATM    8  C   UNL     1      63.338   7.261   2.600  1.00  0.00     0.018 A 
HETATM    9  O   UNL     1      62.939  11.313   6.275  1.00  0.00    -0.260 OA
HETATM   10  C   UNL     1      64.581   6.007   4.246  1.00  0.00     0.068 A 
HETATM   11  C   UNL     1      64.027   6.098   2.978  1.00  0.00     0.037 A 
ENDROOT
BRANCH   1  12
HETATM   12  C   UNL     1      61.823   9.885   1.849  1.00  0.00     0.418 C 
HETATM   13  F   UNL     1      62.580   9.685   0.746  1.00  0.00    -0.166 F 
HETATM   14  F   UNL     1      60.717   9.111   1.693  1.00  0.00    -0.166 F 
HETATM   15  F   UNL     1      61.399  11.176   1.785  1.00  0.00    -0.166 F 
ENDBRANCH   1  12
BRANCH  10  16
HETATM   16  O   UNL     1      65.254   4.894   4.648  1.00  0.00    -0.361 OA
HETATM   17  H   UNL     1      65.787   4.921   5.419  1.00  0.00     0.217 HD
ENDBRANCH  10  16
TORSDOF 2
ENDMDL
MODEL 2
REMARK VINA RESULT:      -5.7      1.217      1.726
REMARK  2 active torsions:
REMARK  status: ('A' for Active; 'I' for Inactive)
REMARK    1  A    between atoms: C_1  and  C_2 
REMARK    2  A    between atoms: C_14  and  O_16 
ROOT
HETATM    1  C   UNL     1      62.276   9.042   2.644  1.00  0.00     0.066 A 
HETATM    2  C   UNL     1      63.788   8.895   4.591  1.00  0.00     0.093 A 
HETATM    3  C   UNL     1      63.296   8.309   3.417  1.00  0.00     0.013 A 
HETATM    4  O   UNL     1      63.331  10.150   5.043  1.00  0.00    -0.275 OA
HETATM    5  C   UNL     1      62.374  10.857   4.343  1.00  0.00     0.289 A 
HETATM    6  C   UNL     1      61.872  10.235   3.111  1.00  0.00     0.099 A 
HETATM    7  C   UNL     1      64.755   8.283   5.392  1.00  0.00     0.074 A 
HETATM    8  C   UNL     1      63.823   7.056   3.072  1.00  0.00     0.018 A 
HETATM    9  O   UNL     1      61.952  11.944   4.712  1.00  0.00    -0.260 OA
HETATM   10  C   UNL     1      65.253   7.047   5.017  1.00  0.00     0.068 A 
HETATM   11  C   UNL     1      64.796   6.427   3.864  1.00  0.00     0.037 A 
ENDROOT
BRANCH   1  12
HETATM   12  C   UNL     1      61.656   8.530   1.376  1.00  0.00     0.418 C 
HETATM   13  F   UNL     1      60.571   9.208   0.935  1.00  0.00    -0.166 F 
HETATM   14  F   UNL     1      62.554   8.548   0.356  1.00  0.00    -0.166 F 
HETATM   15  F   UNL     1      61.260   7.235   1.514  1.00  0.00    -0.166 F 
ENDBRANCH   1  12
BRANCH  10  16
HETATM   16  O   UNL     1      66.195   6.467   5.810  1.00  0.00    -0.361 OA
HETATM   17  H   UNL     1      66.048   6.390   6.733  1.00  0.00     0.217 HD
ENDBRANCH  10  16
TORSDOF 2
ENDMDL
MODEL 3
REMARK VINA RESULT:      -5.5      1.374      3.875
REMARK  2 active torsions:
REMARK  status: ('A' for Active; 'I' for Inactive)
REMARK    1  A    between atoms: C_1  and  C_2 
REMARK    2  A    between atoms: C_14  and  O_16 
ROOT
HETATM    1  C   UNL     1      62.297   7.954   2.470  1.00  0.00     0.066 A 
HETATM    2  C   UNL     1      63.827   8.624   4.288  1.00  0.00     0.093 A 
HETATM    3  C   UNL     1      62.707   8.925   3.501  1.00  0.00     0.013 A 
HETATM    4  O   UNL     1      64.560   7.433   4.114  1.00  0.00    -0.275 OA
HETATM    5  C   UNL     1      64.202   6.508   3.153  1.00  0.00     0.289 A 
HETATM    6  C   UNL     1      63.024   6.831   2.340  1.00  0.00     0.099 A 
HETATM    7  C   UNL     1      64.294   9.477   5.291  1.00  0.00     0.074 A 
HETATM    8  C   UNL     1      62.062  10.142   3.764  1.00  0.00     0.018 A 
HETATM    9  O   UNL     1      64.822   5.469   2.972  1.00  0.00    -0.260 OA
HETATM   10  C   UNL     1      63.629  10.668   5.523  1.00  0.00     0.068 A 
HETATM   11  C   UNL     1      62.517  11.010   4.769  1.00  0.00     0.037 A 
ENDROOT
BRANCH   1  12
HETATM   12  C   UNL     1      61.126   8.150   1.551  1.00  0.00     0.418 C 
HETATM   13  F   UNL     1      61.131   9.291   0.824  1.00  0.00    -0.166 F 
HETATM   14  F   UNL     1      61.037   7.132   0.655  1.00  0.00    -0.166 F 
HETATM   15  F   UNL     1      59.956   8.152   2.245  1.00  0.00    -0.166 F 
ENDBRANCH   1  12
BRANCH  10  16
HETATM   16  O   UNL     1      64.101  11.485   6.505  1.00  0.00    -0.361 OA
HETATM   17  H   UNL     1      63.909  11.299   7.403  1.00  0.00     0.217 HD
ENDBRANCH  10  16
TORSDOF 2
ENDMDL
MODEL 4
REMARK VINA RESULT:      -5.4      2.907      4.648
REMARK  2 active torsions:
REMARK  status: ('A' for Active; 'I' for Inactive)
REMARK    1  A    between atoms: C_1  and  C_2 
REMARK    2  A    between atoms: C_14  and  O_16 
ROOT
HETATM    1  C   UNL     1      64.707   6.800   4.370  1.00  0.00     0.066 A 
HETATM    2  C   UNL     1      63.942   9.098   4.846  1.00  0.00     0.093 A 
HETATM    3  C   UNL     1      63.800   7.928   4.090  1.00  0.00     0.013 A 
HETATM    4  O   UNL     1      64.923   9.219   5.851  1.00  0.00    -0.275 OA
HETATM    5  C   UNL     1      65.790   8.181   6.132  1.00  0.00     0.289 A 
HETATM    6  C   UNL     1      65.626   6.958   5.338  1.00  0.00     0.099 A 
HETATM    7  C   UNL     1      63.132  10.221   4.659  1.00  0.00     0.074 A 
HETATM    8  C   UNL     1      62.791   7.928   3.115  1.00  0.00     0.018 A 
HETATM    9  O   UNL     1      66.656   8.257   6.992  1.00  0.00    -0.260 OA
HETATM   10  C   UNL     1      62.145  10.182   3.690  1.00  0.00     0.068 A 
HETATM   11  C   UNL     1      61.966   9.046   2.915  1.00  0.00     0.037 A 
ENDROOT
BRANCH   1  12
HETATM   12  C   UNL     1      64.673   5.492   3.632  1.00  0.00     0.418 C 
HETATM   13  F   UNL     1      63.475   4.865   3.598  1.00  0.00    -0.166 F 
HETATM   14  F   UNL     1      65.050   5.657   2.336  1.00  0.00    -0.166 F 
HETATM   15  F   UNL     1      65.548   4.603   4.174  1.00  0.00    -0.166 F 
ENDBRANCH   1  12
BRANCH  10  16
HETATM   16  O   UNL     1      61.366  11.286   3.522  1.00  0.00    -0.361 OA
HETATM   17  H   UNL     1      61.571  12.079   3.978  1.00  0.00     0.217 HD
ENDBRANCH  10  16
TORSDOF 2
ENDMDL
MODEL 5
REMARK VINA RESULT:      -5.4      3.544      5.562
REMARK  2 active torsions:
REMARK  status: ('A' for Active; 'I' for Inactive)
REMARK    1  A    between atoms: C_1  and  C_2 
REMARK    2  A    between atoms: C_14  and  O_16 
ROOT
HETATM    1  C   UNL     1      65.108   7.288   4.924  1.00  0.00     0.066 A 
HETATM    2  C   UNL     1      63.378   8.163   3.396  1.00  0.00     0.093 A 
HETATM    3  C   UNL     1      64.104   8.313   4.584  1.00  0.00     0.013 A 
HETATM    4  O   UNL     1      63.582   7.066   2.534  1.00  0.00    -0.275 OA
HETATM    5  C   UNL     1      64.512   6.089   2.828  1.00  0.00     0.289 A 
HETATM    6  C   UNL     1      65.271   6.261   4.072  1.00  0.00     0.099 A 
HETATM    7  C   UNL     1      62.406   9.078   2.985  1.00  0.00     0.074 A 
HETATM    8  C   UNL     1      63.810   9.442   5.363  1.00  0.00     0.018 A 
HETATM    9  O   UNL     1      64.707   5.122   2.105  1.00  0.00    -0.260 OA
HETATM   10  C   UNL     1      62.146  10.182   3.778  1.00  0.00     0.068 A 
HETATM   11  C   UNL     1      62.838  10.373   4.964  1.00  0.00     0.037 A 
ENDROOT
BRANCH   1  12
HETATM   12  C   UNL     1      65.950   7.317   6.168  1.00  0.00     0.418 C 
HETATM   13  F   UNL     1      66.956   6.413   6.220  1.00  0.00    -0.166 F 
HETATM   14  F   UNL     1      66.528   8.536   6.333  1.00  0.00    -0.166 F 
HETATM   15  F   UNL     1      65.191   7.100   7.276  1.00  0.00    -0.166 F 
ENDBRANCH   1  12
BRANCH  10  16
HETATM   16  O   UNL     1      61.195  11.063   3.361  1.00  0.00    -0.361 OA
HETATM   17  H   UNL     1      60.935  11.080   2.460  1.00  0.00     0.217 HD
ENDBRANCH  10  16
TORSDOF 2
ENDMDL
MODEL 6
REMARK VINA RESULT:      -5.2      1.804      2.425
REMARK  2 active torsions:
REMARK  status: ('A' for Active; 'I' for Inactive)
REMARK    1  A    between atoms: C_1  and  C_2 
REMARK    2  A    between atoms: C_14  and  O_16 
ROOT
HETATM    1  C   UNL     1      63.187   9.084   3.988  1.00  0.00     0.066 A 
HETATM    2  C   UNL     1      64.450   7.007   3.555  1.00  0.00     0.093 A 
HETATM    3  C   UNL     1      63.393   7.855   3.199  1.00  0.00     0.013 A 
HETATM    4  O   UNL     1      65.304   7.298   4.637  1.00  0.00    -0.275 OA
HETATM    5  C   UNL     1      65.133   8.439   5.397  1.00  0.00     0.289 A 
HETATM    6  C   UNL     1      64.026   9.323   5.010  1.00  0.00     0.099 A 
HETATM    7  C   UNL     1      64.729   5.822   2.870  1.00  0.00     0.074 A 
HETATM    8  C   UNL     1      62.608   7.457   2.107  1.00  0.00     0.018 A 
HETATM    9  O   UNL     1      65.851   8.716   6.347  1.00  0.00    -0.260 OA
HETATM   10  C   UNL     1      63.935   5.464   1.795  1.00  0.00     0.068 A 
HETATM   11  C   UNL     1      62.876   6.271   1.406  1.00  0.00     0.037 A 
ENDROOT
BRANCH   1  12
HETATM   12  C   UNL     1      62.090  10.076   3.725  1.00  0.00     0.418 C 
HETATM   13  F   UNL     1      62.100  10.657   2.503  1.00  0.00    -0.166 F 
HETATM   14  F   UNL     1      60.869   9.494   3.857  1.00  0.00    -0.166 F 
HETATM   15  F   UNL     1      62.127  11.094   4.626  1.00  0.00    -0.166 F 
ENDBRANCH   1  12
BRANCH  10  16
HETATM   16  O   UNL     1      64.223   4.306   1.141  1.00  0.00    -0.361 OA
HETATM   17  H   UNL     1      63.538   3.697   0.941  1.00  0.00     0.217 HD
ENDBRANCH  10  16
TORSDOF 2
ENDMDL
MODEL 7
REMARK VINA RESULT:      -5.0      3.216      4.211
REMARK  2 active torsions:
REMARK  status: ('A' for Active; 'I' for Inactive)
REMARK    1  A    between atoms: C_1  and  C_2 
REMARK    2  A    between atoms: C_14  and  O_16 
ROOT
HETATM    1  C   UNL     1      64.227   8.222   4.569  1.00  0.00     0.066 A 
HETATM    2  C   UNL     1      62.325   9.169   3.311  1.00  0.00     0.093 A 
HETATM    3  C   UNL     1      63.283   8.155   3.438  1.00  0.00     0.013 A 
HETATM    4  O   UNL     1      62.250  10.239   4.226  1.00  0.00    -0.275 OA
HETATM    5  C   UNL     1      63.124  10.332   5.291  1.00  0.00     0.289 A 
HETATM    6  C   UNL     1      64.118   9.259   5.417  1.00  0.00     0.099 A 
HETATM    7  C   UNL     1      61.386   9.195   2.278  1.00  0.00     0.074 A 
HETATM    8  C   UNL     1      63.263   7.146   2.465  1.00  0.00     0.018 A 
HETATM    9  O   UNL     1      63.090  11.251   6.097  1.00  0.00    -0.260 OA
HETATM   10  C   UNL     1      61.396   8.180   1.337  1.00  0.00     0.068 A 
HETATM   11  C   UNL     1      62.325   7.155   1.420  1.00  0.00     0.037 A 
ENDROOT
BRANCH   1  12
HETATM   12  C   UNL     1      65.309   7.211   4.821  1.00  0.00     0.418 C 
HETATM   13  F   UNL     1      66.190   7.025   3.811  1.00  0.00    -0.166 F 
HETATM   14  F   UNL     1      66.048   7.553   5.909  1.00  0.00    -0.166 F 
HETATM   15  F   UNL     1      64.779   5.987   5.088  1.00  0.00    -0.166 F 
ENDBRANCH   1  12
BRANCH  10  16
HETATM   16  O   UNL     1      60.473   8.223   0.337  1.00  0.00    -0.361 OA
HETATM   17  H   UNL     1      60.722   8.513  -0.519  1.00  0.00     0.217 HD
ENDBRANCH  10  16
TORSDOF 2
ENDMDL
MODEL 8
REMARK VINA RESULT:      -5.0      2.649      3.207
REMARK  2 active torsions:
REMARK  status: ('A' for Active; 'I' for Inactive)
REMARK    1  A    between atoms: C_1  and  C_2 
REMARK    2  A    between atoms: C_14  and  O_16 
ROOT
HETATM    1  C   UNL     1      61.192   8.214   2.743  1.00  0.00     0.066 A 
HETATM    2  C   UNL     1      61.690   7.183   4.931  1.00  0.00     0.093 A 
HETATM    3  C   UNL     1      62.118   7.990   3.868  1.00  0.00     0.013 A 
HETATM    4  O   UNL     1      60.413   6.587   4.943  1.00  0.00    -0.275 OA
HETATM    5  C   UNL     1      59.526   6.775   3.902  1.00  0.00     0.289 A 
HETATM    6  C   UNL     1      59.983   7.627   2.798  1.00  0.00     0.099 A 
HETATM    7  C   UNL     1      62.491   6.912   6.043  1.00  0.00     0.074 A 
HETATM    8  C   UNL     1      63.411   8.524   3.966  1.00  0.00     0.018 A 
HETATM    9  O   UNL     1      58.414   6.265   3.879  1.00  0.00    -0.260 OA
HETATM   10  C   UNL     1      63.760   7.460   6.105  1.00  0.00     0.068 A 
HETATM   11  C   UNL     1      64.229   8.264   5.077  1.00  0.00     0.037 A 
ENDROOT
BRANCH   1  12
HETATM   12  C   UNL     1      61.521   9.046   1.537  1.00  0.00     0.418 C 
HETATM   13  F   UNL     1      62.651   8.705   0.876  1.00  0.00    -0.166 F 
HETATM   14  F   UNL     1      60.517   8.992   0.623  1.00  0.00    -0.166 F 
HETATM   15  F   UNL     1      61.662  10.357   1.873  1.00  0.00    -0.166 F 
ENDBRANCH   1  12
BRANCH  10  16
HETATM   16  O   UNL     1      64.526   7.184   7.196  1.00  0.00    -0.361 OA
HETATM   17  H   UNL     1      64.125   7.088   8.038  1.00  0.00     0.217 HD
ENDBRANCH  10  16
TORSDOF 2
ENDMDL
MODEL 9
REMARK VINA RESULT:      -4.9      2.575      3.478
REMARK  2 active torsions:
REMARK  status: ('A' for Active; 'I' for Inactive)
REMARK    1  A    between atoms: C_1  and  C_2 
REMARK    2  A    between atoms: C_14  and  O_16 
ROOT
HETATM    1  C   UNL     1      62.661   7.884   4.703  1.00  0.00     0.066 A 
HETATM    2  C   UNL     1      64.028   6.769   6.430  1.00  0.00     0.093 A 
HETATM    3  C   UNL     1      63.946   7.722   5.406  1.00  0.00     0.013 A 
HETATM    4  O   UNL     1      62.924   5.972   6.793  1.00  0.00    -0.275 OA
HETATM    5  C   UNL     1      61.709   6.098   6.150  1.00  0.00     0.289 A 
HETATM    6  C   UNL     1      61.634   7.104   5.084  1.00  0.00     0.099 A 
HETATM    7  C   UNL     1      65.200   6.541   7.156  1.00  0.00     0.074 A 
HETATM    8  C   UNL     1      65.112   8.452   5.131  1.00  0.00     0.018 A 
HETATM    9  O   UNL     1      60.735   5.416   6.436  1.00  0.00    -0.260 OA
HETATM   10  C   UNL     1      66.329   7.283   6.858  1.00  0.00     0.068 A 
HETATM   11  C   UNL     1      66.298   8.237   5.852  1.00  0.00     0.037 A 
ENDROOT
BRANCH   1  12
HETATM   12  C   UNL     1      62.433   8.857   3.582  1.00  0.00     0.418 C 
HETATM   13  F   UNL     1      62.724  10.150   3.856  1.00  0.00    -0.166 F 
HETATM   14  F   UNL     1      63.176   8.525   2.494  1.00  0.00    -0.166 F 
HETATM   15  F   UNL     1      61.134   8.841   3.178  1.00  0.00    -0.166 F 
ENDBRANCH   1  12
BRANCH  10  16
HETATM   16  O   UNL     1      67.461   7.046   7.577  1.00  0.00    -0.361 OA
HETATM   17  H   UNL     1      68.085   6.416   7.275  1.00  0.00     0.217 HD
ENDBRANCH  10  16
TORSDOF 2
ENDMDL
