MODEL 1
REMARK VINA RESULT:      -5.0      0.000      0.000
REMARK  2 active torsions:
REMARK  status: ('A' for Active; 'I' for Inactive)
REMARK    1  A    between atoms: N_1  and  C_2 
REMARK    2  A    between atoms: C_3  and  O_5 
ROOT
HETATM    1  C   UNL     1      63.655   8.893   4.816  1.00  0.00     0.063 A 
HETATM    2  C   UNL     1      63.437  10.240   5.170  1.00  0.00     0.092 A 
HETATM    3  C   UNL     1      62.902   8.404   3.743  1.00  0.00     0.032 A 
HETATM    4  C   UNL     1      62.507  11.054   4.528  1.00  0.00     0.039 A 
HETATM    5  C   UNL     1      61.982   9.219   3.063  1.00  0.00     0.002 A 
HETATM    6  C   UNL     1      61.785  10.542   3.458  1.00  0.00     0.003 A 
ENDROOT
BRANCH   1   7
HETATM    7  N   UNL     1      64.658   8.163   5.444  1.00  0.00    -0.375 N 
HETATM    8  C   UNL     1      66.015   8.099   4.880  1.00  0.00     0.149 C 
HETATM    9  C   UNL     1      66.991   7.953   6.063  1.00  0.00     0.187 C 
HETATM   10  O   UNL     1      66.695   6.790   6.860  1.00  0.00    -0.388 OA
HETATM   11  C   UNL     1      65.341   6.828   7.353  1.00  0.00     0.187 C 
HETATM   12  C   UNL     1      64.325   6.935   6.199  1.00  0.00     0.149 C 
ENDBRANCH   1   7
BRANCH   2  13
HETATM   13  O   UNL     1      64.254  10.849   6.091  1.00  0.00    -0.358 OA
HETATM   14  H   UNL     1      65.126  10.534   6.225  1.00  0.00     0.217 HD
ENDBRANCH   2  13
TORSDOF 2
ENDMDL
MODEL 2
REMARK VINA RESULT:      -4.9      1.279      1.509
REMARK  2 active torsions:
REMARK  status: ('A' for Active; 'I' for Inactive)
REMARK    1  A    between atoms: N_1  and  C_2 
REMARK    2  A    between atoms: C_3  and  O_5 
ROOT
HETATM    1  C   UNL     1      62.830   9.117   4.065  1.00  0.00     0.063 A 
HETATM    2  C   UNL     1      62.589  10.363   4.678  1.00  0.00     0.092 A 
HETATM    3  C   UNL     1      62.500   9.018   2.709  1.00  0.00     0.032 A 
HETATM    4  C   UNL     1      62.025  11.445   4.006  1.00  0.00     0.039 A 
HETATM    5  C   UNL     1      61.959  10.108   2.006  1.00  0.00     0.002 A 
HETATM    6  C   UNL     1      61.721  11.319   2.656  1.00  0.00     0.003 A 
ENDROOT
BRANCH   1   7
HETATM    7  N   UNL     1      63.472   8.107   4.773  1.00  0.00    -0.375 N 
HETATM    8  C   UNL     1      64.940   8.017   4.798  1.00  0.00     0.149 C 
HETATM    9  C   UNL     1      65.333   7.409   6.159  1.00  0.00     0.187 C 
HETATM   10  O   UNL     1      64.720   6.122   6.366  1.00  0.00    -0.388 OA
HETATM   11  C   UNL     1      63.284   6.207   6.272  1.00  0.00     0.187 C 
HETATM   12  C   UNL     1      62.843   6.776   4.909  1.00  0.00     0.149 C 
ENDBRANCH   1   7
BRANCH   2  13
HETATM   13  O   UNL     1      63.043  10.602   5.952  1.00  0.00    -0.358 OA
HETATM   14  H   UNL     1      63.091  11.480   6.276  1.00  0.00     0.217 HD
ENDBRANCH   2  13
TORSDOF 2
ENDMDL
MODEL 3
REMARK VINA RESULT:      -4.7      1.979      2.829
REMARK  2 active torsions:
REMARK  status: ('A' for Active; 'I' for Inactive)
REMARK    1  A    between atoms: N_1  and  C_2 
REMARK    2  A    between atoms: C_3  and  O_5 
ROOT
HETATM    1  C   UNL     1      62.975   9.035   3.889  1.00  0.00     0.063 A 
HETATM    2  C   UNL     1      62.785   8.546   2.580  1.00  0.00     0.092 A 
HETATM    3  C   UNL     1      62.499  10.326   4.144  1.00  0.00     0.032 A 
HETATM    4  C   UNL     1      62.190   9.295   1.568  1.00  0.00     0.039 A 
HETATM    5  C   UNL     1      61.867  11.084   3.144  1.00  0.00     0.002 A 
HETATM    6  C   UNL     1      61.716  10.568   1.857  1.00  0.00     0.003 A 
ENDROOT
BRANCH   1   7
HETATM    7  N   UNL     1      63.500   8.203   4.871  1.00  0.00    -0.375 N 
HETATM    8  C   UNL     1      62.640   7.634   5.920  1.00  0.00     0.149 C 
HETATM    9  C   UNL     1      63.239   6.267   6.304  1.00  0.00     0.187 C 
HETATM   10  O   UNL     1      64.604   6.388   6.748  1.00  0.00    -0.388 OA
HETATM   11  C   UNL     1      65.427   7.009   5.740  1.00  0.00     0.187 C 
HETATM   12  C   UNL     1      64.885   8.399   5.351  1.00  0.00     0.149 C 
ENDBRANCH   1   7
BRANCH   2  13
HETATM   13  O   UNL     1      63.061   7.232   2.290  1.00  0.00    -0.358 OA
HETATM   14  H   UNL     1      62.587   6.792   1.612  1.00  0.00     0.217 HD
ENDBRANCH   2  13
TORSDOF 2
ENDMDL
MODEL 4
REMARK VINA RESULT:      -4.1     11.899     13.515
REMARK  2 active torsions:
REMARK  status: ('A' for Active; 'I' for Inactive)
REMARK    1  A    between atoms: N_1  and  C_2 
REMARK    2  A    between atoms: C_3  and  O_5 
ROOT
HETATM    1  C   UNL     1      56.807   2.008  13.090  1.00  0.00     0.063 A 
HETATM    2  C   UNL     1      57.860   2.457  12.268  1.00  0.00     0.092 A 
HETATM    3  C   UNL     1      57.138   1.047  14.053  1.00  0.00     0.032 A 
HETATM    4  C   UNL     1      59.160   1.968  12.362  1.00  0.00     0.039 A 
HETATM    5  C   UNL     1      58.451   0.566  14.184  1.00  0.00     0.002 A 
HETATM    6  C   UNL     1      59.459   1.025  13.338  1.00  0.00     0.003 A 
ENDROOT
BRANCH   1   7
HETATM    7  N   UNL     1      55.552   2.599  12.998  1.00  0.00    -0.375 N 
HETATM    8  C   UNL     1      54.899   3.178  14.182  1.00  0.00     0.149 C 
HETATM    9  C   UNL     1      54.032   4.354  13.691  1.00  0.00     0.187 C 
HETATM   10  O   UNL     1      53.067   3.932  12.709  1.00  0.00    -0.388 OA
HETATM   11  C   UNL     1      53.711   3.305  11.582  1.00  0.00     0.187 C 
HETATM   12  C   UNL     1      54.561   2.097  12.022  1.00  0.00     0.149 C 
ENDBRANCH   1   7
BRANCH   2  13
HETATM   13  O   UNL     1      57.664   3.520  11.419  1.00  0.00    -0.358 OA
HETATM   14  H   UNL     1      57.725   3.397  10.493  1.00  0.00     0.217 HD
ENDBRANCH   2  13
TORSDOF 2
ENDMDL
MODEL 5
REMARK VINA RESULT:      -3.9      2.038      2.118
REMARK  2 active torsions:
REMARK  status: ('A' for Active; 'I' for Inactive)
REMARK    1  A    between atoms: N_1  and  C_2 
REMARK    2  A    between atoms: C_3  and  O_5 
ROOT
HETATM    1  C   UNL     1      64.026   7.218   4.918  1.00  0.00     0.063 A 
HETATM    2  C   UNL     1      62.747   7.545   5.410  1.00  0.00     0.092 A 
HETATM    3  C   UNL     1      64.158   7.153   3.526  1.00  0.00     0.032 A 
HETATM    4  C   UNL     1      61.647   7.764   4.583  1.00  0.00     0.039 A 
HETATM    5  C   UNL     1      63.068   7.402   2.675  1.00  0.00     0.002 A 
HETATM    6  C   UNL     1      61.814   7.706   3.205  1.00  0.00     0.003 A 
ENDROOT
BRANCH   1   7
HETATM    7  N   UNL     1      65.098   7.094   5.795  1.00  0.00    -0.375 N 
HETATM    8  C   UNL     1      66.336   7.861   5.591  1.00  0.00     0.149 C 
HETATM    9  C   UNL     1      66.933   8.137   6.985  1.00  0.00     0.187 C 
HETATM   10  O   UNL     1      67.180   6.918   7.711  1.00  0.00    -0.388 OA
HETATM   11  C   UNL     1      65.974   6.139   7.848  1.00  0.00     0.187 C 
HETATM   12  C   UNL     1      65.361   5.807   6.473  1.00  0.00     0.149 C 
ENDBRANCH   1   7
BRANCH   2  13
HETATM   13  O   UNL     1      62.569   7.802   6.747  1.00  0.00    -0.358 OA
HETATM   14  H   UNL     1      61.705   7.907   7.093  1.00  0.00     0.217 HD
ENDBRANCH   2  13
TORSDOF 2
ENDMDL
MODEL 6
REMARK VINA RESULT:      -3.9      2.093      4.877
REMARK  2 active torsions:
REMARK  status: ('A' for Active; 'I' for Inactive)
REMARK    1  A    between atoms: N_1  and  C_2 
REMARK    2  A    between atoms: C_3  and  O_5 
ROOT
HETATM    1  C   UNL     1      65.023   7.324   4.913  1.00  0.00     0.063 A 
HETATM    2  C   UNL     1      64.950   7.208   6.315  1.00  0.00     0.092 A 
HETATM    3  C   UNL     1      66.270   7.068   4.332  1.00  0.00     0.032 A 
HETATM    4  C   UNL     1      66.049   6.889   7.110  1.00  0.00     0.039 A 
HETATM    5  C   UNL     1      67.382   6.714   5.114  1.00  0.00     0.002 A 
HETATM    6  C   UNL     1      67.270   6.627   6.502  1.00  0.00     0.003 A 
ENDROOT
BRANCH   1   7
HETATM    7  N   UNL     1      63.869   7.563   4.175  1.00  0.00    -0.375 N 
HETATM    8  C   UNL     1      63.549   6.756   2.987  1.00  0.00     0.149 C 
HETATM    9  C   UNL     1      62.013   6.686   2.888  1.00  0.00     0.187 C 
HETATM   10  O   UNL     1      61.421   7.997   2.811  1.00  0.00    -0.388 OA
HETATM   11  C   UNL     1      61.795   8.804   3.945  1.00  0.00     0.187 C 
HETATM   12  C   UNL     1      63.326   8.935   4.062  1.00  0.00     0.149 C 
ENDBRANCH   1   7
BRANCH   2  13
HETATM   13  O   UNL     1      63.732   7.269   6.948  1.00  0.00    -0.358 OA
HETATM   14  H   UNL     1      63.097   6.595   6.807  1.00  0.00     0.217 HD
ENDBRANCH   2  13
TORSDOF 2
ENDMDL
MODEL 7
REMARK VINA RESULT:      -3.8      4.733      5.752
REMARK  2 active torsions:
REMARK  status: ('A' for Active; 'I' for Inactive)
REMARK    1  A    between atoms: N_1  and  C_2 
REMARK    2  A    between atoms: C_3  and  O_5 
ROOT
HETATM    1  C   UNL     1      60.463   7.817   2.271  1.00  0.00     0.063 A 
HETATM    2  C   UNL     1      61.077   9.068   2.483  1.00  0.00     0.092 A 
HETATM    3  C   UNL     1      60.864   7.114   1.129  1.00  0.00     0.032 A 
HETATM    4  C   UNL     1      62.010   9.615   1.606  1.00  0.00     0.039 A 
HETATM    5  C   UNL     1      61.827   7.636   0.250  1.00  0.00     0.002 A 
HETATM    6  C   UNL     1      62.397   8.887   0.489  1.00  0.00     0.003 A 
ENDROOT
BRANCH   1   7
HETATM    7  N   UNL     1      59.603   7.294   3.230  1.00  0.00    -0.375 N 
HETATM    8  C   UNL     1      59.954   6.078   3.980  1.00  0.00     0.149 C 
HETATM    9  C   UNL     1      59.305   6.201   5.372  1.00  0.00     0.187 C 
HETATM   10  O   UNL     1      57.878   6.373   5.283  1.00  0.00    -0.388 OA
HETATM   11  C   UNL     1      57.541   7.529   4.490  1.00  0.00     0.187 C 
HETATM   12  C   UNL     1      58.138   7.431   3.072  1.00  0.00     0.149 C 
ENDBRANCH   1   7
BRANCH   2  13
HETATM   13  O   UNL     1      60.875   9.742   3.663  1.00  0.00    -0.358 OA
HETATM   14  H   UNL     1      61.556  10.276   4.020  1.00  0.00     0.217 HD
ENDBRANCH   2  13
TORSDOF 2
ENDMDL
MODEL 8
REMARK VINA RESULT:      -3.7      1.706      4.772
REMARK  2 active torsions:
REMARK  status: ('A' for Active; 'I' for Inactive)
REMARK    1  A    between atoms: N_1  and  C_2 
REMARK    2  A    between atoms: C_3  and  O_5 
ROOT
HETATM    1  C   UNL     1      64.510   7.155   5.652  1.00  0.00     0.063 A 
HETATM    2  C   UNL     1      65.637   7.799   6.202  1.00  0.00     0.092 A 
HETATM    3  C   UNL     1      64.295   5.831   6.052  1.00  0.00     0.032 A 
HETATM    4  C   UNL     1      66.524   7.168   7.070  1.00  0.00     0.039 A 
HETATM    5  C   UNL     1      65.162   5.189   6.952  1.00  0.00     0.002 A 
HETATM    6  C   UNL     1      66.276   5.858   7.458  1.00  0.00     0.003 A 
ENDROOT
BRANCH   1   7
HETATM    7  N   UNL     1      63.620   7.870   4.858  1.00  0.00    -0.375 N 
HETATM    8  C   UNL     1      62.696   8.850   5.449  1.00  0.00     0.149 C 
HETATM    9  C   UNL     1      62.466   9.949   4.393  1.00  0.00     0.187 C 
HETATM   10  O   UNL     1      61.947   9.408   3.163  1.00  0.00    -0.388 OA
HETATM   11  C   UNL     1      62.826   8.399   2.626  1.00  0.00     0.187 C 
HETATM   12  C   UNL     1      63.055   7.257   3.636  1.00  0.00     0.149 C 
ENDBRANCH   1   7
BRANCH   2  13
HETATM   13  O   UNL     1      65.825   9.145   6.004  1.00  0.00    -0.358 OA
HETATM   14  H   UNL     1      65.119   9.743   6.150  1.00  0.00     0.217 HD
ENDBRANCH   2  13
TORSDOF 2
ENDMDL
MODEL 9
REMARK VINA RESULT:      -3.7     12.413     13.990
REMARK  2 active torsions:
REMARK  status: ('A' for Active; 'I' for Inactive)
REMARK    1  A    between atoms: N_1  and  C_2 
REMARK    2  A    between atoms: C_3  and  O_5 
ROOT
HETATM    1  C   UNL     1      56.668   2.105  13.004  1.00  0.00     0.063 A 
HETATM    2  C   UNL     1      57.060   1.215  14.025  1.00  0.00     0.092 A 
HETATM    3  C   UNL     1      57.680   2.550  12.146  1.00  0.00     0.032 A 
HETATM    4  C   UNL     1      58.379   0.809  14.214  1.00  0.00     0.039 A 
HETATM    5  C   UNL     1      59.011   2.125  12.302  1.00  0.00     0.002 A 
HETATM    6  C   UNL     1      59.358   1.257  13.337  1.00  0.00     0.003 A 
ENDROOT
BRANCH   1   7
HETATM    7  N   UNL     1      55.323   2.403  12.821  1.00  0.00    -0.375 N 
HETATM    8  C   UNL     1      54.651   2.118  11.543  1.00  0.00     0.149 C 
HETATM    9  C   UNL     1      53.178   1.801  11.867  1.00  0.00     0.187 C 
HETATM   10  O   UNL     1      52.540   2.885  12.569  1.00  0.00    -0.388 OA
HETATM   11  C   UNL     1      53.244   3.203  13.786  1.00  0.00     0.187 C 
HETATM   12  C   UNL     1      54.716   3.564  13.507  1.00  0.00     0.149 C 
ENDBRANCH   1   7
BRANCH   2  13
HETATM   13  O   UNL     1      56.110   0.594  14.798  1.00  0.00    -0.358 OA
HETATM   14  H   UNL     1      56.335  -0.167  15.296  1.00  0.00     0.217 HD
ENDBRANCH   2  13
TORSDOF 2
ENDMDL
