MODEL 1
REMARK VINA RESULT:      -5.0      0.000      0.000
REMARK  5 active torsions:
REMARK  status: ('A' for Active; 'I' for Inactive)
REMARK    1  A    between atoms: C_1  and  C_2 
REMARK    2  A    between atoms: C_2  and  C_9 
REMARK    3  A    between atoms: C_4  and  S_6 
REMARK    4  A    between atoms: C_5  and  C_8 
REMARK    5  A    between atoms: S_6  and  C_9 
ROOT
HETATM    1  C   UNL     1      63.165   7.046   4.665  1.00  0.00     0.045 C 
HETATM    2  C   UNL     1      62.853   8.323   4.936  1.00  0.00     0.018 C 
ENDROOT
BRANCH   1   3
HETATM    3  S   UNL     1      63.638   5.948   5.923  1.00  0.00    -0.141 SA
BRANCH   3   4
HETATM    4  C   UNL     1      65.438   5.867   5.622  1.00  0.00     0.089 C 
BRANCH   4   5
HETATM    5  C   UNL     1      66.185   6.798   6.574  1.00  0.00     0.123 C 
BRANCH   5   6
HETATM    6  C   UNL     1      66.540   8.089   5.877  1.00  0.00     0.173 C 
HETATM    7  O   UNL     1      67.345   8.195   4.964  1.00  0.00    -0.648 OA
HETATM    8  O   UNL     1      65.864   9.151   6.369  1.00  0.00    -0.648 OA
ENDBRANCH   5   6
ENDBRANCH   4   5
ENDBRANCH   3   4
ENDBRANCH   1   3
BRANCH   2   9
HETATM    9  C   UNL     1      62.498   9.278   3.882  1.00  0.00    -0.036 A 
HETATM   10  C   UNL     1      62.414   8.874   2.546  1.00  0.00     0.011 A 
HETATM   11  C   UNL     1      62.059   9.794   1.553  1.00  0.00     0.001 A 
HETATM   12  C   UNL     1      61.788  11.118   1.892  1.00  0.00     0.000 A 
HETATM   13  C   UNL     1      61.875  11.529   3.221  1.00  0.00     0.001 A 
HETATM   14  C   UNL     1      62.230  10.612   4.214  1.00  0.00     0.011 A 
ENDBRANCH   2   9
TORSDOF 5
ENDMDL
MODEL 2
REMARK VINA RESULT:      -5.0      2.024      2.356
REMARK  5 active torsions:
REMARK  status: ('A' for Active; 'I' for Inactive)
REMARK    1  A    between atoms: C_1  and  C_2 
REMARK    2  A    between atoms: C_2  and  C_9 
REMARK    3  A    between atoms: C_4  and  S_6 
REMARK    4  A    between atoms: C_5  and  C_8 
REMARK    5  A    between atoms: S_6  and  C_9 
ROOT
HETATM    1  C   UNL     1      64.289   8.165   5.302  1.00  0.00     0.045 C 
HETATM    2  C   UNL     1      63.105   8.108   4.672  1.00  0.00     0.018 C 
ENDROOT
BRANCH   1   3
HETATM    3  S   UNL     1      64.779   6.925   6.412  1.00  0.00    -0.141 SA
BRANCH   3   4
HETATM    4  C   UNL     1      66.478   7.479   6.787  1.00  0.00     0.089 C 
BRANCH   4   5
HETATM    5  C   UNL     1      67.277   6.357   7.447  1.00  0.00     0.123 C 
BRANCH   5   6
HETATM    6  C   UNL     1      66.623   5.934   8.740  1.00  0.00     0.173 C 
HETATM    7  O   UNL     1      66.406   6.672   9.689  1.00  0.00    -0.648 OA
HETATM    8  O   UNL     1      66.286   4.626   8.752  1.00  0.00    -0.648 OA
ENDBRANCH   5   6
ENDBRANCH   4   5
ENDBRANCH   3   4
ENDBRANCH   1   3
BRANCH   2   9
HETATM    9  C   UNL     1      62.652   9.170   3.769  1.00  0.00    -0.036 A 
HETATM   10  C   UNL     1      62.512   8.934   2.398  1.00  0.00     0.011 A 
HETATM   11  C   UNL     1      62.063   9.954   1.550  1.00  0.00     0.001 A 
HETATM   12  C   UNL     1      61.755  11.210   2.069  1.00  0.00     0.000 A 
HETATM   13  C   UNL     1      61.896  11.453   3.434  1.00  0.00     0.001 A 
HETATM   14  C   UNL     1      62.345  10.436   4.282  1.00  0.00     0.011 A 
ENDBRANCH   2   9
TORSDOF 5
ENDMDL
MODEL 3
REMARK VINA RESULT:      -5.0      1.304      1.993
REMARK  5 active torsions:
REMARK  status: ('A' for Active; 'I' for Inactive)
REMARK    1  A    between atoms: C_1  and  C_2 
REMARK    2  A    between atoms: C_2  and  C_9 
REMARK    3  A    between atoms: C_4  and  S_6 
REMARK    4  A    between atoms: C_5  and  C_8 
REMARK    5  A    between atoms: S_6  and  C_9 
ROOT
HETATM    1  C   UNL     1      64.634   6.930   3.507  1.00  0.00     0.045 C 
HETATM    2  C   UNL     1      63.511   7.475   4.000  1.00  0.00     0.018 C 
ENDROOT
BRANCH   1   3
HETATM    3  S   UNL     1      65.394   5.577   4.283  1.00  0.00    -0.141 SA
BRANCH   3   4
HETATM    4  C   UNL     1      66.980   6.336   4.778  1.00  0.00     0.089 C 
BRANCH   4   5
HETATM    5  C   UNL     1      67.073   6.444   6.299  1.00  0.00     0.123 C 
BRANCH   5   6
HETATM    6  C   UNL     1      66.017   7.385   6.826  1.00  0.00     0.173 C 
HETATM    7  O   UNL     1      65.095   7.062   7.559  1.00  0.00    -0.648 OA
HETATM    8  O   UNL     1      66.191   8.656   6.403  1.00  0.00    -0.648 OA
ENDBRANCH   5   6
ENDBRANCH   4   5
ENDBRANCH   3   4
ENDBRANCH   1   3
BRANCH   2   9
HETATM    9  C   UNL     1      62.881   8.649   3.388  1.00  0.00    -0.036 A 
HETATM   10  C   UNL     1      62.593   9.787   4.147  1.00  0.00     0.011 A 
HETATM   11  C   UNL     1      62.006  10.905   3.545  1.00  0.00     0.001 A 
HETATM   12  C   UNL     1      61.705  10.889   2.184  1.00  0.00     0.000 A 
HETATM   13  C   UNL     1      61.985   9.757   1.422  1.00  0.00     0.001 A 
HETATM   14  C   UNL     1      62.571   8.639   2.022  1.00  0.00     0.011 A 
ENDBRANCH   2   9
TORSDOF 5
ENDMDL
MODEL 4
REMARK VINA RESULT:      -4.5      1.411      1.672
REMARK  5 active torsions:
REMARK  status: ('A' for Active; 'I' for Inactive)
REMARK    1  A    between atoms: C_1  and  C_2 
REMARK    2  A    between atoms: C_2  and  C_9 
REMARK    3  A    between atoms: C_4  and  S_6 
REMARK    4  A    between atoms: C_5  and  C_8 
REMARK    5  A    between atoms: S_6  and  C_9 
ROOT
HETATM    1  C   UNL     1      63.138   7.105   4.836  1.00  0.00     0.045 C 
HETATM    2  C   UNL     1      62.950   8.417   5.044  1.00  0.00     0.018 C 
ENDROOT
BRANCH   1   3
HETATM    3  S   UNL     1      63.660   6.056   6.116  1.00  0.00    -0.141 SA
BRANCH   3   4
HETATM    4  C   UNL     1      65.180   6.920   6.644  1.00  0.00     0.089 C 
BRANCH   4   5
HETATM    5  C   UNL     1      66.211   6.931   5.517  1.00  0.00     0.123 C 
BRANCH   5   6
HETATM    6  C   UNL     1      67.340   5.979   5.827  1.00  0.00     0.173 C 
HETATM    7  O   UNL     1      68.042   6.025   6.826  1.00  0.00    -0.648 OA
HETATM    8  O   UNL     1      67.508   5.039   4.870  1.00  0.00    -0.648 OA
ENDBRANCH   5   6
ENDBRANCH   4   5
ENDBRANCH   3   4
ENDBRANCH   1   3
BRANCH   2   9
HETATM    9  C   UNL     1      62.556   9.327   3.964  1.00  0.00    -0.036 A 
HETATM   10  C   UNL     1      62.465   8.877   2.643  1.00  0.00     0.011 A 
HETATM   11  C   UNL     1      62.073   9.754   1.626  1.00  0.00     0.001 A 
HETATM   12  C   UNL     1      61.772  11.081   1.924  1.00  0.00     0.000 A 
HETATM   13  C   UNL     1      61.865  11.538   3.237  1.00  0.00     0.001 A 
HETATM   14  C   UNL     1      62.257  10.663   4.255  1.00  0.00     0.011 A 
ENDBRANCH   2   9
TORSDOF 5
ENDMDL
MODEL 5
REMARK VINA RESULT:      -4.4      1.978      2.467
REMARK  5 active torsions:
REMARK  status: ('A' for Active; 'I' for Inactive)
REMARK    1  A    between atoms: C_1  and  C_2 
REMARK    2  A    between atoms: C_2  and  C_9 
REMARK    3  A    between atoms: C_4  and  S_6 
REMARK    4  A    between atoms: C_5  and  C_8 
REMARK    5  A    between atoms: S_6  and  C_9 
ROOT
HETATM    1  C   UNL     1      65.282   7.107   4.673  1.00  0.00     0.045 C 
HETATM    2  C   UNL     1      64.151   7.279   3.972  1.00  0.00     0.018 C 
ENDROOT
BRANCH   1   3
HETATM    3  S   UNL     1      66.093   5.573   4.711  1.00  0.00    -0.141 SA
BRANCH   3   4
HETATM    4  C   UNL     1      65.710   5.045   6.416  1.00  0.00     0.089 C 
BRANCH   4   5
HETATM    5  C   UNL     1      65.472   6.257   7.315  1.00  0.00     0.123 C 
BRANCH   5   6
HETATM    6  C   UNL     1      66.529   6.332   8.389  1.00  0.00     0.173 C 
HETATM    7  O   UNL     1      66.312   6.556   9.571  1.00  0.00    -0.648 OA
HETATM    8  O   UNL     1      67.776   6.120   7.913  1.00  0.00    -0.648 OA
ENDBRANCH   5   6
ENDBRANCH   4   5
ENDBRANCH   3   4
ENDBRANCH   1   3
BRANCH   2   9
HETATM    9  C   UNL     1      63.424   8.553   3.967  1.00  0.00    -0.036 A 
HETATM   10  C   UNL     1      62.614   8.913   2.886  1.00  0.00     0.011 A 
HETATM   11  C   UNL     1      61.914  10.125   2.903  1.00  0.00     0.001 A 
HETATM   12  C   UNL     1      62.023  10.979   3.999  1.00  0.00     0.000 A 
HETATM   13  C   UNL     1      62.831  10.628   5.078  1.00  0.00     0.001 A 
HETATM   14  C   UNL     1      63.531   9.418   5.062  1.00  0.00     0.011 A 
ENDBRANCH   2   9
TORSDOF 5
ENDMDL
MODEL 6
REMARK VINA RESULT:      -4.3      4.176      5.157
REMARK  5 active torsions:
REMARK  status: ('A' for Active; 'I' for Inactive)
REMARK    1  A    between atoms: C_1  and  C_2 
REMARK    2  A    between atoms: C_2  and  C_9 
REMARK    3  A    between atoms: C_4  and  S_6 
REMARK    4  A    between atoms: C_5  and  C_8 
REMARK    5  A    between atoms: S_6  and  C_9 
ROOT
HETATM    1  C   UNL     1      61.431   6.376   5.651  1.00  0.00     0.045 C 
HETATM    2  C   UNL     1      62.357   6.925   4.850  1.00  0.00     0.018 C 
ENDROOT
BRANCH   1   3
HETATM    3  S   UNL     1      61.552   4.724   6.167  1.00  0.00    -0.141 SA
BRANCH   3   4
HETATM    4  C   UNL     1      60.442   4.754   7.616  1.00  0.00     0.089 C 
BRANCH   4   5
HETATM    5  C   UNL     1      59.425   5.887   7.492  1.00  0.00     0.123 C 
BRANCH   5   6
HETATM    6  C   UNL     1      58.763   6.148   8.823  1.00  0.00     0.173 C 
HETATM    7  O   UNL     1      58.271   7.213   9.163  1.00  0.00    -0.648 OA
HETATM    8  O   UNL     1      58.760   5.063   9.628  1.00  0.00    -0.648 OA
ENDBRANCH   5   6
ENDBRANCH   4   5
ENDBRANCH   3   4
ENDBRANCH   1   3
BRANCH   2   9
HETATM    9  C   UNL     1      62.246   8.304   4.364  1.00  0.00    -0.036 A 
HETATM   10  C   UNL     1      62.656   9.380   5.158  1.00  0.00     0.011 A 
HETATM   11  C   UNL     1      62.559  10.690   4.674  1.00  0.00     0.001 A 
HETATM   12  C   UNL     1      62.051  10.928   3.398  1.00  0.00     0.000 A 
HETATM   13  C   UNL     1      61.637   9.861   2.603  1.00  0.00     0.001 A 
HETATM   14  C   UNL     1      61.733   8.552   3.085  1.00  0.00     0.011 A 
ENDBRANCH   2   9
TORSDOF 5
ENDMDL
MODEL 7
REMARK VINA RESULT:      -4.1      4.827      5.633
REMARK  5 active torsions:
REMARK  status: ('A' for Active; 'I' for Inactive)
REMARK    1  A    between atoms: C_1  and  C_2 
REMARK    2  A    between atoms: C_2  and  C_9 
REMARK    3  A    between atoms: C_4  and  S_6 
REMARK    4  A    between atoms: C_5  and  C_8 
REMARK    5  A    between atoms: S_6  and  C_9 
ROOT
HETATM    1  C   UNL     1      59.475   6.194   4.374  1.00  0.00     0.045 C 
HETATM    2  C   UNL     1      59.269   7.395   3.813  1.00  0.00     0.018 C 
ENDROOT
BRANCH   1   3
HETATM    3  S   UNL     1      58.308   5.488   5.447  1.00  0.00    -0.141 SA
BRANCH   3   4
HETATM    4  C   UNL     1      59.414   4.847   6.751  1.00  0.00     0.089 C 
BRANCH   4   5
HETATM    5  C   UNL     1      59.759   5.946   7.754  1.00  0.00     0.123 C 
BRANCH   5   6
HETATM    6  C   UNL     1      58.800   5.914   8.920  1.00  0.00     0.173 C 
HETATM    7  O   UNL     1      58.472   4.908   9.530  1.00  0.00    -0.648 OA
HETATM    8  O   UNL     1      58.325   7.139   9.239  1.00  0.00    -0.648 OA
ENDBRANCH   5   6
ENDBRANCH   4   5
ENDBRANCH   3   4
ENDBRANCH   1   3
BRANCH   2   9
HETATM    9  C   UNL     1      60.264   8.029   2.943  1.00  0.00    -0.036 A 
HETATM   10  C   UNL     1      61.274   8.836   3.476  1.00  0.00     0.011 A 
HETATM   11  C   UNL     1      62.226   9.422   2.634  1.00  0.00     0.001 A 
HETATM   12  C   UNL     1      62.171   9.203   1.259  1.00  0.00     0.000 A 
HETATM   13  C   UNL     1      61.166   8.404   0.720  1.00  0.00     0.001 A 
HETATM   14  C   UNL     1      60.213   7.818   1.560  1.00  0.00     0.011 A 
ENDBRANCH   2   9
TORSDOF 5
ENDMDL
MODEL 8
REMARK VINA RESULT:      -4.0      5.436      6.645
REMARK  5 active torsions:
REMARK  status: ('A' for Active; 'I' for Inactive)
REMARK    1  A    between atoms: C_1  and  C_2 
REMARK    2  A    between atoms: C_2  and  C_9 
REMARK    3  A    between atoms: C_4  and  S_6 
REMARK    4  A    between atoms: C_5  and  C_8 
REMARK    5  A    between atoms: S_6  and  C_9 
ROOT
HETATM    1  C   UNL     1      59.391   7.155   3.741  1.00  0.00     0.045 C 
HETATM    2  C   UNL     1      59.068   6.465   4.846  1.00  0.00     0.018 C 
ENDROOT
BRANCH   1   3
HETATM    3  S   UNL     1      61.037   7.278   3.205  1.00  0.00    -0.141 SA
BRANCH   3   4
HETATM    4  C   UNL     1      61.421   8.985   3.729  1.00  0.00     0.089 C 
BRANCH   4   5
HETATM    5  C   UNL     1      62.036   9.776   2.576  1.00  0.00     0.123 C 
BRANCH   5   6
HETATM    6  C   UNL     1      61.874  11.259   2.809  1.00  0.00     0.173 C 
HETATM    7  O   UNL     1      61.847  12.107   1.931  1.00  0.00    -0.648 OA
HETATM    8  O   UNL     1      61.756  11.572   4.118  1.00  0.00    -0.648 OA
ENDBRANCH   5   6
ENDBRANCH   4   5
ENDBRANCH   3   4
ENDBRANCH   1   3
BRANCH   2   9
HETATM    9  C   UNL     1      57.690   6.390   5.342  1.00  0.00    -0.036 A 
HETATM   10  C   UNL     1      57.397   6.640   6.686  1.00  0.00     0.011 A 
HETATM   11  C   UNL     1      56.074   6.581   7.141  1.00  0.00     0.001 A 
HETATM   12  C   UNL     1      55.044   6.270   6.255  1.00  0.00     0.000 A 
HETATM   13  C   UNL     1      55.330   6.016   4.916  1.00  0.00     0.001 A 
HETATM   14  C   UNL     1      56.650   6.075   4.460  1.00  0.00     0.011 A 
ENDBRANCH   2   9
TORSDOF 5
ENDMDL
MODEL 9
REMARK VINA RESULT:      -4.0      4.360      6.677
REMARK  5 active torsions:
REMARK  status: ('A' for Active; 'I' for Inactive)
REMARK    1  A    between atoms: C_1  and  C_2 
REMARK    2  A    between atoms: C_2  and  C_9 
REMARK    3  A    between atoms: C_4  and  S_6 
REMARK    4  A    between atoms: C_5  and  C_8 
REMARK    5  A    between atoms: S_6  and  C_9 
ROOT
HETATM    1  C   UNL     1      61.558   7.046   5.642  1.00  0.00     0.045 C 
HETATM    2  C   UNL     1      61.408   5.721   5.792  1.00  0.00     0.018 C 
ENDROOT
BRANCH   1   3
HETATM    3  S   UNL     1      62.558   7.703   4.385  1.00  0.00    -0.141 SA
BRANCH   3   4
HETATM    4  C   UNL     1      61.355   8.790   3.547  1.00  0.00     0.089 C 
BRANCH   4   5
HETATM    5  C   UNL     1      62.049   9.653   2.496  1.00  0.00     0.123 C 
BRANCH   5   6
HETATM    6  C   UNL     1      61.900  11.116   2.833  1.00  0.00     0.173 C 
HETATM    7  O   UNL     1      61.897  12.026   2.018  1.00  0.00    -0.648 OA
HETATM    8  O   UNL     1      61.763  11.336   4.159  1.00  0.00    -0.648 OA
ENDBRANCH   5   6
ENDBRANCH   4   5
ENDBRANCH   3   4
ENDBRANCH   1   3
BRANCH   2   9
HETATM    9  C   UNL     1      60.606   5.147   6.877  1.00  0.00    -0.036 A 
HETATM   10  C   UNL     1      59.792   5.957   7.675  1.00  0.00     0.011 A 
HETATM   11  C   UNL     1      59.021   5.392   8.697  1.00  0.00     0.001 A 
HETATM   12  C   UNL     1      59.061   4.018   8.925  1.00  0.00     0.000 A 
HETATM   13  C   UNL     1      59.873   3.205   8.137  1.00  0.00     0.001 A 
HETATM   14  C   UNL     1      60.645   3.768   7.116  1.00  0.00     0.011 A 
ENDBRANCH   2   9
TORSDOF 5
ENDMDL
