MODEL 1
REMARK VINA RESULT:      -5.5      0.000      0.000
REMARK  2 active torsions:
REMARK  status: ('A' for Active; 'I' for Inactive)
REMARK       I    between atoms: C_1  and  N_2 
REMARK       I    between atoms: C_1  and  N_4 
REMARK    1  A    between atoms: N_2  and  C_5 
REMARK    2  A    between atoms: C_5  and  C_7 
ROOT
HETATM    1  C   UNL     1      62.533   7.413   4.079  1.00  0.00     0.162 C 
ENDROOT
BRANCH   1   2
HETATM    2  N   UNL     1      63.766   7.380   4.828  1.00  0.00    -0.339 N 
HETATM    3  C   UNL     1      63.769   7.436   6.186  1.00  0.00     0.314 C 
HETATM    4  O   UNL     1      62.773   7.534   6.882  1.00  0.00    -0.248 OA
HETATM    5  N   UNL     1      65.008   7.339   6.720  1.00  0.00    -0.352 N 
HETATM    6  H   UNL     1      65.793   7.261   6.132  1.00  0.00     0.160 HD
HETATM    7  H   UNL     1      65.123   7.345   7.698  1.00  0.00     0.160 HD
HETATM    8  H   UNL     1      64.622   7.316   4.346  1.00  0.00     0.164 HD
ENDBRANCH   1   2
BRANCH   1   9
HETATM    9  C   UNL     1      62.351   8.757   3.425  1.00  0.00    -0.040 A 
HETATM   10  C   UNL     1      62.210   9.915   4.209  1.00  0.00     0.012 A 
HETATM   11  C   UNL     1      61.963  11.149   3.606  1.00  0.00     0.043 A 
HETATM   12  C   UNL     1      61.854  11.227   2.223  1.00  0.00     0.116 A 
HETATM   13  C   UNL     1      62.002  10.096   1.429  1.00  0.00     0.043 A 
HETATM   14  F   UNL     1      61.594  12.408   1.648  1.00  0.00    -0.206 F 
HETATM   15  C   UNL     1      62.248   8.861   2.027  1.00  0.00     0.012 A 
ENDBRANCH   1   9
TORSDOF 2
ENDMDL
MODEL 2
REMARK VINA RESULT:      -5.4      0.536      1.497
REMARK  2 active torsions:
REMARK  status: ('A' for Active; 'I' for Inactive)
REMARK       I    between atoms: C_1  and  N_2 
REMARK       I    between atoms: C_1  and  N_4 
REMARK    1  A    between atoms: N_2  and  C_5 
REMARK    2  A    between atoms: C_5  and  C_7 
ROOT
HETATM    1  C   UNL     1      63.121   7.570   4.073  1.00  0.00     0.162 C 
ENDROOT
BRANCH   1   2
HETATM    2  N   UNL     1      64.385   7.803   4.729  1.00  0.00    -0.339 N 
HETATM    3  C   UNL     1      64.525   7.639   6.070  1.00  0.00     0.314 C 
HETATM    4  O   UNL     1      63.630   7.308   6.830  1.00  0.00    -0.248 OA
HETATM    5  N   UNL     1      65.789   7.849   6.504  1.00  0.00    -0.352 N 
HETATM    6  H   UNL     1      66.490   8.116   5.866  1.00  0.00     0.160 HD
HETATM    7  H   UNL     1      66.007   7.734   7.457  1.00  0.00     0.160 HD
HETATM    8  H   UNL     1      65.161   8.088   4.194  1.00  0.00     0.164 HD
ENDBRANCH   1   2
BRANCH   1   9
HETATM    9  C   UNL     1      62.611   8.840   3.446  1.00  0.00    -0.040 A 
HETATM   10  C   UNL     1      62.405   8.913   2.057  1.00  0.00     0.012 A 
HETATM   11  C   UNL     1      62.007  10.112   1.465  1.00  0.00     0.043 A 
HETATM   12  C   UNL     1      61.819  11.238   2.256  1.00  0.00     0.116 A 
HETATM   13  C   UNL     1      62.006  11.185   3.632  1.00  0.00     0.043 A 
HETATM   14  F   UNL     1      61.460  12.394   1.684  1.00  0.00    -0.206 F 
HETATM   15  C   UNL     1      62.404   9.989   4.228  1.00  0.00     0.012 A 
ENDBRANCH   1   9
TORSDOF 2
ENDMDL
MODEL 3
REMARK VINA RESULT:      -5.3      1.258      1.976
REMARK  2 active torsions:
REMARK  status: ('A' for Active; 'I' for Inactive)
REMARK       I    between atoms: C_1  and  N_2 
REMARK       I    between atoms: C_1  and  N_4 
REMARK    1  A    between atoms: N_2  and  C_5 
REMARK    2  A    between atoms: C_5  and  C_7 
ROOT
HETATM    1  C   UNL     1      63.169   7.484   4.088  1.00  0.00     0.162 C 
ENDROOT
BRANCH   1   2
HETATM    2  N   UNL     1      62.137   6.833   4.857  1.00  0.00    -0.339 N 
HETATM    3  C   UNL     1      62.119   6.903   6.215  1.00  0.00     0.314 C 
HETATM    4  O   UNL     1      62.947   7.485   6.895  1.00  0.00    -0.248 OA
HETATM    5  N   UNL     1      61.051   6.281   6.765  1.00  0.00    -0.352 N 
HETATM    6  H   UNL     1      60.399   5.819   6.190  1.00  0.00     0.160 HD
HETATM    7  H   UNL     1      60.927   6.291   7.742  1.00  0.00     0.160 HD
HETATM    8  H   UNL     1      61.433   6.327   4.391  1.00  0.00     0.164 HD
ENDBRANCH   1   2
BRANCH   1   9
HETATM    9  C   UNL     1      62.642   8.750   3.466  1.00  0.00    -0.040 A 
HETATM   10  C   UNL     1      62.409   8.818   2.082  1.00  0.00     0.012 A 
HETATM   11  C   UNL     1      61.995  10.014   1.493  1.00  0.00     0.043 A 
HETATM   12  C   UNL     1      61.817  11.141   2.285  1.00  0.00     0.116 A 
HETATM   13  C   UNL     1      62.031  11.093   3.657  1.00  0.00     0.043 A 
HETATM   14  F   UNL     1      61.442  12.294   1.716  1.00  0.00    -0.206 F 
HETATM   15  C   UNL     1      62.446   9.901   4.249  1.00  0.00     0.012 A 
ENDBRANCH   1   9
TORSDOF 2
ENDMDL
MODEL 4
REMARK VINA RESULT:      -5.2      1.728      1.799
REMARK  2 active torsions:
REMARK  status: ('A' for Active; 'I' for Inactive)
REMARK       I    between atoms: C_1  and  N_2 
REMARK       I    between atoms: C_1  and  N_4 
REMARK    1  A    between atoms: N_2  and  C_5 
REMARK    2  A    between atoms: C_5  and  C_7 
ROOT
HETATM    1  C   UNL     1      63.658   7.838   5.246  1.00  0.00     0.162 C 
ENDROOT
BRANCH   1   2
HETATM    2  N   UNL     1      64.988   7.508   4.795  1.00  0.00    -0.339 N 
HETATM    3  C   UNL     1      66.088   8.045   5.386  1.00  0.00     0.314 C 
HETATM    4  O   UNL     1      66.065   8.842   6.309  1.00  0.00    -0.248 OA
HETATM    5  N   UNL     1      67.250   7.582   4.870  1.00  0.00    -0.352 N 
HETATM    6  H   UNL     1      67.236   6.939   4.125  1.00  0.00     0.160 HD
HETATM    7  H   UNL     1      68.109   7.889   5.241  1.00  0.00     0.160 HD
HETATM    8  H   UNL     1      65.102   6.881   4.044  1.00  0.00     0.164 HD
ENDBRANCH   1   2
BRANCH   1   9
HETATM    9  C   UNL     1      63.086   8.960   4.421  1.00  0.00    -0.040 A 
HETATM   10  C   UNL     1      62.848  10.218   5.000  1.00  0.00     0.012 A 
HETATM   11  C   UNL     1      62.246  11.235   4.258  1.00  0.00     0.043 A 
HETATM   12  C   UNL     1      61.879  10.995   2.940  1.00  0.00     0.116 A 
HETATM   13  C   UNL     1      62.116   9.763   2.344  1.00  0.00     0.043 A 
HETATM   14  F   UNL     1      61.280  11.965   2.236  1.00  0.00    -0.206 F 
HETATM   15  C   UNL     1      62.716   8.744   3.083  1.00  0.00     0.012 A 
ENDBRANCH   1   9
TORSDOF 2
ENDMDL
MODEL 5
REMARK VINA RESULT:      -4.8      3.874      5.157
REMARK  2 active torsions:
REMARK  status: ('A' for Active; 'I' for Inactive)
REMARK       I    between atoms: C_1  and  N_2 
REMARK       I    between atoms: C_1  and  N_4 
REMARK    1  A    between atoms: N_2  and  C_5 
REMARK    2  A    between atoms: C_5  and  C_7 
ROOT
HETATM    1  C   UNL     1      62.974   9.311   4.867  1.00  0.00     0.162 C 
ENDROOT
BRANCH   1   2
HETATM    2  N   UNL     1      62.404   9.775   3.625  1.00  0.00    -0.339 N 
HETATM    3  C   UNL     1      61.941  11.045   3.493  1.00  0.00     0.314 C 
HETATM    4  O   UNL     1      61.942  11.885   4.377  1.00  0.00    -0.248 OA
HETATM    5  N   UNL     1      61.492  11.321   2.246  1.00  0.00    -0.352 N 
HETATM    6  H   UNL     1      61.504  10.622   1.553  1.00  0.00     0.160 HD
HETATM    7  H   UNL     1      61.155  12.221   2.034  1.00  0.00     0.160 HD
HETATM    8  H   UNL     1      62.350   9.158   2.860  1.00  0.00     0.164 HD
ENDBRANCH   1   2
BRANCH   1   9
HETATM    9  C   UNL     1      64.082   8.326   4.603  1.00  0.00    -0.040 A 
HETATM   10  C   UNL     1      65.314   8.449   5.267  1.00  0.00     0.012 A 
HETATM   11  C   UNL     1      66.368   7.585   4.965  1.00  0.00     0.043 A 
HETATM   12  C   UNL     1      66.192   6.601   3.999  1.00  0.00     0.116 A 
HETATM   13  C   UNL     1      64.978   6.455   3.340  1.00  0.00     0.043 A 
HETATM   14  F   UNL     1      67.211   5.787   3.694  1.00  0.00    -0.206 F 
HETATM   15  C   UNL     1      63.923   7.317   3.637  1.00  0.00     0.012 A 
ENDBRANCH   1   9
TORSDOF 2
ENDMDL
MODEL 6
REMARK VINA RESULT:      -4.8     12.766     13.938
REMARK  2 active torsions:
REMARK  status: ('A' for Active; 'I' for Inactive)
REMARK       I    between atoms: C_1  and  N_2 
REMARK       I    between atoms: C_1  and  N_4 
REMARK    1  A    between atoms: N_2  and  C_5 
REMARK    2  A    between atoms: C_5  and  C_7 
ROOT
HETATM    1  C   UNL     1      55.155   2.001  13.769  1.00  0.00     0.162 C 
ENDROOT
BRANCH   1   2
HETATM    2  N   UNL     1      54.935   3.220  14.509  1.00  0.00    -0.339 N 
HETATM    3  C   UNL     1      54.396   4.318  13.915  1.00  0.00     0.314 C 
HETATM    4  O   UNL     1      54.072   4.389  12.742  1.00  0.00    -0.248 OA
HETATM    5  N   UNL     1      54.212   5.349  14.772  1.00  0.00    -0.352 N 
HETATM    6  H   UNL     1      54.483   5.262  15.713  1.00  0.00     0.160 HD
HETATM    7  H   UNL     1      53.805   6.187  14.451  1.00  0.00     0.160 HD
HETATM    8  H   UNL     1      55.180   3.258  15.461  1.00  0.00     0.164 HD
ENDBRANCH   1   2
BRANCH   1   9
HETATM    9  C   UNL     1      56.630   1.748  13.598  1.00  0.00    -0.040 A 
HETATM   10  C   UNL     1      57.356   2.430  12.607  1.00  0.00     0.012 A 
HETATM   11  C   UNL     1      58.705   2.140  12.395  1.00  0.00     0.043 A 
HETATM   12  C   UNL     1      59.327   1.169  13.170  1.00  0.00     0.116 A 
HETATM   13  C   UNL     1      58.629   0.491  14.163  1.00  0.00     0.043 A 
HETATM   14  F   UNL     1      60.615   0.875  12.950  1.00  0.00    -0.206 F 
HETATM   15  C   UNL     1      57.282   0.777  14.377  1.00  0.00     0.012 A 
ENDBRANCH   1   9
TORSDOF 2
ENDMDL
MODEL 7
REMARK VINA RESULT:      -4.6      4.082      5.346
REMARK  2 active torsions:
REMARK  status: ('A' for Active; 'I' for Inactive)
REMARK       I    between atoms: C_1  and  N_2 
REMARK       I    between atoms: C_1  and  N_4 
REMARK    1  A    between atoms: N_2  and  C_5 
REMARK    2  A    between atoms: C_5  and  C_7 
ROOT
HETATM    1  C   UNL     1      63.407   8.753   4.376  1.00  0.00     0.162 C 
ENDROOT
BRANCH   1   2
HETATM    2  N   UNL     1      63.632   9.670   5.467  1.00  0.00    -0.339 N 
HETATM    3  C   UNL     1      62.996  10.870   5.522  1.00  0.00     0.314 C 
HETATM    4  O   UNL     1      62.217  11.286   4.682  1.00  0.00    -0.248 OA
HETATM    5  N   UNL     1      63.285  11.575   6.640  1.00  0.00    -0.352 N 
HETATM    6  H   UNL     1      63.919  11.213   7.300  1.00  0.00     0.160 HD
HETATM    7  H   UNL     1      62.861  12.450   6.793  1.00  0.00     0.160 HD
HETATM    8  H   UNL     1      64.258   9.422   6.185  1.00  0.00     0.164 HD
ENDBRANCH   1   2
BRANCH   1   9
HETATM    9  C   UNL     1      64.566   7.801   4.242  1.00  0.00    -0.040 A 
HETATM   10  C   UNL     1      64.471   6.681   3.398  1.00  0.00     0.012 A 
HETATM   11  C   UNL     1      65.514   5.756   3.332  1.00  0.00     0.043 A 
HETATM   12  C   UNL     1      66.649   5.946   4.111  1.00  0.00     0.116 A 
HETATM   13  C   UNL     1      66.767   7.052   4.944  1.00  0.00     0.043 A 
HETATM   14  F   UNL     1      67.639   5.045   4.065  1.00  0.00    -0.206 F 
HETATM   15  C   UNL     1      65.728   7.978   5.013  1.00  0.00     0.012 A 
ENDBRANCH   1   9
TORSDOF 2
ENDMDL
MODEL 8
REMARK VINA RESULT:      -4.6      1.379      1.637
REMARK  2 active torsions:
REMARK  status: ('A' for Active; 'I' for Inactive)
REMARK       I    between atoms: C_1  and  N_2 
REMARK       I    between atoms: C_1  and  N_4 
REMARK    1  A    between atoms: N_2  and  C_5 
REMARK    2  A    between atoms: C_5  and  C_7 
ROOT
HETATM    1  C   UNL     1      63.393   8.148   4.843  1.00  0.00     0.162 C 
ENDROOT
BRANCH   1   2
HETATM    2  N   UNL     1      62.547   6.983   4.754  1.00  0.00    -0.339 N 
HETATM    3  C   UNL     1      61.838   6.542   5.827  1.00  0.00     0.314 C 
HETATM    4  O   UNL     1      61.855   7.053   6.933  1.00  0.00    -0.248 OA
HETATM    5  N   UNL     1      61.059   5.472   5.546  1.00  0.00    -0.352 N 
HETATM    6  H   UNL     1      61.066   5.080   4.643  1.00  0.00     0.160 HD
HETATM    7  H   UNL     1      60.485   5.085   6.247  1.00  0.00     0.160 HD
HETATM    8  H   UNL     1      62.482   6.497   3.900  1.00  0.00     0.164 HD
ENDBRANCH   1   2
BRANCH   1   9
HETATM    9  C   UNL     1      62.858   9.254   3.973  1.00  0.00    -0.040 A 
HETATM   10  C   UNL     1      62.546  10.507   4.529  1.00  0.00     0.012 A 
HETATM   11  C   UNL     1      61.976  11.508   3.740  1.00  0.00     0.043 A 
HETATM   12  C   UNL     1      61.716  11.257   2.399  1.00  0.00     0.116 A 
HETATM   13  C   UNL     1      62.027  10.029   1.827  1.00  0.00     0.043 A 
HETATM   14  F   UNL     1      61.149  12.210   1.648  1.00  0.00    -0.206 F 
HETATM   15  C   UNL     1      62.595   9.027   2.612  1.00  0.00     0.012 A 
ENDBRANCH   1   9
TORSDOF 2
ENDMDL
MODEL 9
REMARK VINA RESULT:      -4.5      3.945      5.461
REMARK  2 active torsions:
REMARK  status: ('A' for Active; 'I' for Inactive)
REMARK       I    between atoms: C_1  and  N_2 
REMARK       I    between atoms: C_1  and  N_4 
REMARK    1  A    between atoms: N_2  and  C_5 
REMARK    2  A    between atoms: C_5  and  C_7 
ROOT
HETATM    1  C   UNL     1      63.519   9.277   5.088  1.00  0.00     0.162 C 
ENDROOT
BRANCH   1   2
HETATM    2  N   UNL     1      62.703   9.574   3.936  1.00  0.00    -0.339 N 
HETATM    3  C   UNL     1      62.060  10.765   3.814  1.00  0.00     0.314 C 
HETATM    4  O   UNL     1      62.091  11.663   4.639  1.00  0.00    -0.248 OA
HETATM    5  N   UNL     1      61.387  10.890   2.647  1.00  0.00    -0.352 N 
HETATM    6  H   UNL     1      61.380  10.148   2.001  1.00  0.00     0.160 HD
HETATM    7  H   UNL     1      60.904  11.724   2.445  1.00  0.00     0.160 HD
HETATM    8  H   UNL     1      62.609   8.900   3.224  1.00  0.00     0.164 HD
ENDBRANCH   1   2
BRANCH   1   9
HETATM    9  C   UNL     1      64.556   8.240   4.746  1.00  0.00    -0.040 A 
HETATM   10  C   UNL     1      64.303   7.287   3.745  1.00  0.00     0.012 A 
HETATM   11  C   UNL     1      65.230   6.278   3.480  1.00  0.00     0.043 A 
HETATM   12  C   UNL     1      66.406   6.218   4.216  1.00  0.00     0.116 A 
HETATM   13  C   UNL     1      66.681   7.158   5.203  1.00  0.00     0.043 A 
HETATM   14  F   UNL     1      67.285   5.236   3.977  1.00  0.00    -0.206 F 
HETATM   15  C   UNL     1      65.757   8.167   5.470  1.00  0.00     0.012 A 
ENDBRANCH   1   9
TORSDOF 2
ENDMDL
