MODEL 1
REMARK VINA RESULT:      -4.6      0.000      0.000
REMARK  1 active torsions:
REMARK  status: ('A' for Active; 'I' for Inactive)
REMARK    1  A    between atoms: C_3  and  N_7 
ROOT
HETATM    1  C   UNL     1      62.272  11.286   4.294  1.00  0.00     0.145 A 
HETATM    2  C   UNL     1      61.885  10.619   3.138  1.00  0.00     0.086 A 
HETATM    3  C   UNL     1      63.043  10.659   5.288  1.00  0.00     0.065 A 
HETATM    4  C   UNL     1      63.501   9.360   5.049  1.00  0.00     0.035 A 
HETATM    5  C   UNL     1      62.307   9.311   2.953  1.00  0.00     0.119 A 
HETATM    6  F   UNL     1      61.878  12.557   4.470  1.00  0.00    -0.204 F 
HETATM    7  C   UNL     1      63.115   8.678   3.892  1.00  0.00     0.044 A 
HETATM    8  F   UNL     1      61.944   8.651   1.845  1.00  0.00    -0.206 F 
ENDROOT
BRANCH   3   9
HETATM    9  N   UNL     1      63.533  11.385   6.385  1.00  0.00    -0.397 N 
HETATM   10  H   UNL     1      64.298  11.041   6.900  1.00  0.00     0.156 HD
HETATM   11  H   UNL     1      63.110  12.238   6.640  1.00  0.00     0.156 HD
ENDBRANCH   3   9
TORSDOF 1
ENDMDL
MODEL 2
REMARK VINA RESULT:      -4.5      1.723      2.105
REMARK  1 active torsions:
REMARK  status: ('A' for Active; 'I' for Inactive)
REMARK    1  A    between atoms: C_3  and  N_7 
ROOT
HETATM    1  C   UNL     1      62.577  10.839   5.003  1.00  0.00     0.145 A 
HETATM    2  C   UNL     1      62.057  11.669   4.018  1.00  0.00     0.086 A 
HETATM    3  C   UNL     1      62.838   9.479   4.765  1.00  0.00     0.065 A 
HETATM    4  C   UNL     1      62.649   8.986   3.470  1.00  0.00     0.035 A 
HETATM    5  C   UNL     1      61.826  11.139   2.757  1.00  0.00     0.119 A 
HETATM    6  F   UNL     1      62.815  11.352   6.221  1.00  0.00    -0.204 F 
HETATM    7  C   UNL     1      62.122   9.811   2.471  1.00  0.00     0.044 A 
HETATM    8  F   UNL     1      61.325  11.923   1.793  1.00  0.00    -0.206 F 
ENDROOT
BRANCH   3   9
HETATM    9  N   UNL     1      63.482   8.688   5.730  1.00  0.00    -0.397 N 
HETATM   10  H   UNL     1      63.810   7.791   5.491  1.00  0.00     0.156 HD
HETATM   11  H   UNL     1      63.606   9.031   6.644  1.00  0.00     0.156 HD
ENDBRANCH   3   9
TORSDOF 1
ENDMDL
MODEL 3
REMARK VINA RESULT:      -4.3      1.633      2.286
REMARK  1 active torsions:
REMARK  status: ('A' for Active; 'I' for Inactive)
REMARK    1  A    between atoms: C_3  and  N_7 
ROOT
HETATM    1  C   UNL     1      63.044   9.331   4.595  1.00  0.00     0.145 A 
HETATM    2  C   UNL     1      62.732   8.907   3.309  1.00  0.00     0.086 A 
HETATM    3  C   UNL     1      62.779  10.642   5.026  1.00  0.00     0.065 A 
HETATM    4  C   UNL     1      62.100  11.501   4.157  1.00  0.00     0.035 A 
HETATM    5  C   UNL     1      62.109   9.798   2.448  1.00  0.00     0.119 A 
HETATM    6  F   UNL     1      63.634   8.467   5.435  1.00  0.00    -0.204 F 
HETATM    7  C   UNL     1      61.784  11.086   2.860  1.00  0.00     0.044 A 
HETATM    8  F   UNL     1      61.800   9.407   1.204  1.00  0.00    -0.206 F 
ENDROOT
BRANCH   3   9
HETATM    9  N   UNL     1      62.982  11.015   6.365  1.00  0.00    -0.397 N 
HETATM   10  H   UNL     1      62.293  10.818   7.040  1.00  0.00     0.156 HD
HETATM   11  H   UNL     1      63.813  11.473   6.628  1.00  0.00     0.156 HD
ENDBRANCH   3   9
TORSDOF 1
ENDMDL
MODEL 4
REMARK VINA RESULT:      -4.3      1.882      3.225
REMARK  1 active torsions:
REMARK  status: ('A' for Active; 'I' for Inactive)
REMARK    1  A    between atoms: C_3  and  N_7 
ROOT
HETATM    1  C   UNL     1      62.356   9.051   2.368  1.00  0.00     0.145 A 
HETATM    2  C   UNL     1      62.007  10.171   1.624  1.00  0.00     0.086 A 
HETATM    3  C   UNL     1      62.547   9.116   3.759  1.00  0.00     0.065 A 
HETATM    4  C   UNL     1      62.284  10.326   4.407  1.00  0.00     0.035 A 
HETATM    5  C   UNL     1      61.807  11.373   2.286  1.00  0.00     0.119 A 
HETATM    6  F   UNL     1      62.536   7.882   1.733  1.00  0.00    -0.204 F 
HETATM    7  C   UNL     1      61.936  11.461   3.668  1.00  0.00     0.044 A 
HETATM    8  F   UNL     1      61.470  12.464   1.586  1.00  0.00    -0.206 F 
ENDROOT
BRANCH   3   9
HETATM    9  N   UNL     1      62.773   7.952   4.511  1.00  0.00    -0.397 N 
HETATM   10  H   UNL     1      62.055   7.284   4.612  1.00  0.00     0.156 HD
HETATM   11  H   UNL     1      63.647   7.803   4.938  1.00  0.00     0.156 HD
ENDBRANCH   3   9
TORSDOF 1
ENDMDL
MODEL 5
REMARK VINA RESULT:      -4.2      2.192      2.713
REMARK  1 active torsions:
REMARK  status: ('A' for Active; 'I' for Inactive)
REMARK    1  A    between atoms: C_3  and  N_7 
ROOT
HETATM    1  C   UNL     1      62.339  11.027   4.355  1.00  0.00     0.145 A 
HETATM    2  C   UNL     1      62.917  10.184   5.296  1.00  0.00     0.086 A 
HETATM    3  C   UNL     1      62.057  10.595   3.048  1.00  0.00     0.065 A 
HETATM    4  C   UNL     1      62.285   9.252   2.731  1.00  0.00     0.035 A 
HETATM    5  C   UNL     1      63.185   8.871   4.937  1.00  0.00     0.119 A 
HETATM    6  F   UNL     1      62.065  12.294   4.704  1.00  0.00    -0.204 F 
HETATM    7  C   UNL     1      62.870   8.396   3.669  1.00  0.00     0.044 A 
HETATM    8  F   UNL     1      63.742   8.043   5.830  1.00  0.00    -0.206 F 
ENDROOT
BRANCH   3   9
HETATM    9  N   UNL     1      61.357  11.418   2.152  1.00  0.00    -0.397 N 
HETATM   10  H   UNL     1      61.439  11.271   1.182  1.00  0.00     0.156 HD
HETATM   11  H   UNL     1      60.784  12.143   2.494  1.00  0.00     0.156 HD
ENDBRANCH   3   9
TORSDOF 1
ENDMDL
MODEL 6
REMARK VINA RESULT:      -4.1      2.412      3.835
REMARK  1 active torsions:
REMARK  status: ('A' for Active; 'I' for Inactive)
REMARK    1  A    between atoms: C_3  and  N_7 
ROOT
HETATM    1  C   UNL     1      62.562   8.989   3.632  1.00  0.00     0.145 A 
HETATM    2  C   UNL     1      62.414  10.191   4.313  1.00  0.00     0.086 A 
HETATM    3  C   UNL     1      62.289   8.877   2.258  1.00  0.00     0.065 A 
HETATM    4  C   UNL     1      61.948  10.036   1.555  1.00  0.00     0.035 A 
HETATM    5  C   UNL     1      62.020  11.314   3.600  1.00  0.00     0.119 A 
HETATM    6  F   UNL     1      62.958   7.904   4.316  1.00  0.00    -0.204 F 
HETATM    7  C   UNL     1      61.792  11.251   2.230  1.00  0.00     0.044 A 
HETATM    8  F   UNL     1      61.871  12.482   4.239  1.00  0.00    -0.206 F 
ENDROOT
BRANCH   3   9
HETATM    9  N   UNL     1      62.567   7.690   1.562  1.00  0.00    -0.397 N 
HETATM   10  H   UNL     1      63.238   7.060   1.912  1.00  0.00     0.156 HD
HETATM   11  H   UNL     1      62.092   7.488   0.724  1.00  0.00     0.156 HD
ENDBRANCH   3   9
TORSDOF 1
ENDMDL
MODEL 7
REMARK VINA RESULT:      -3.7      2.319      3.074
REMARK  1 active torsions:
REMARK  status: ('A' for Active; 'I' for Inactive)
REMARK    1  A    between atoms: C_3  and  N_7 
ROOT
HETATM    1  C   UNL     1      62.432   9.575   3.496  1.00  0.00     0.145 A 
HETATM    2  C   UNL     1      62.874   8.259   3.562  1.00  0.00     0.086 A 
HETATM    3  C   UNL     1      62.018  10.157   2.286  1.00  0.00     0.065 A 
HETATM    4  C   UNL     1      61.970   9.350   1.146  1.00  0.00     0.035 A 
HETATM    5  C   UNL     1      62.869   7.497   2.403  1.00  0.00     0.119 A 
HETATM    6  F   UNL     1      62.422  10.310   4.619  1.00  0.00    -0.204 F 
HETATM    7  C   UNL     1      62.416   8.026   1.199  1.00  0.00     0.044 A 
HETATM    8  F   UNL     1      63.292   6.227   2.446  1.00  0.00    -0.206 F 
ENDROOT
BRANCH   3   9
HETATM    9  N   UNL     1      61.454  11.442   2.261  1.00  0.00    -0.397 N 
HETATM   10  H   UNL     1      60.563  11.596   2.652  1.00  0.00     0.156 HD
HETATM   11  H   UNL     1      61.948  12.189   1.851  1.00  0.00     0.156 HD
ENDBRANCH   3   9
TORSDOF 1
ENDMDL
MODEL 8
REMARK VINA RESULT:      -3.4      2.635      3.925
REMARK  1 active torsions:
REMARK  status: ('A' for Active; 'I' for Inactive)
REMARK    1  A    between atoms: C_3  and  N_7 
ROOT
HETATM    1  C   UNL     1      63.949   8.224   4.378  1.00  0.00     0.145 A 
HETATM    2  C   UNL     1      63.687   9.406   5.059  1.00  0.00     0.086 A 
HETATM    3  C   UNL     1      63.234   7.859   3.225  1.00  0.00     0.065 A 
HETATM    4  C   UNL     1      62.301   8.764   2.710  1.00  0.00     0.035 A 
HETATM    5  C   UNL     1      62.715  10.260   4.558  1.00  0.00     0.119 A 
HETATM    6  F   UNL     1      64.899   7.402   4.852  1.00  0.00    -0.204 F 
HETATM    7  C   UNL     1      62.026   9.955   3.389  1.00  0.00     0.044 A 
HETATM    8  F   UNL     1      62.447  11.404   5.200  1.00  0.00    -0.206 F 
ENDROOT
BRANCH   3   9
HETATM    9  N   UNL     1      63.600   6.727   2.478  1.00  0.00    -0.397 N 
HETATM   10  H   UNL     1      64.443   6.725   1.969  1.00  0.00     0.156 HD
HETATM   11  H   UNL     1      63.013   5.937   2.462  1.00  0.00     0.156 HD
ENDBRANCH   3   9
TORSDOF 1
ENDMDL
MODEL 9
REMARK VINA RESULT:      -3.3     12.812     13.336
REMARK  1 active torsions:
REMARK  status: ('A' for Active; 'I' for Inactive)
REMARK    1  A    between atoms: C_3  and  N_7 
ROOT
HETATM    1  C   UNL     1      58.573   1.669  13.899  1.00  0.00     0.145 A 
HETATM    2  C   UNL     1      59.642   1.259  13.113  1.00  0.00     0.086 A 
HETATM    3  C   UNL     1      57.283   1.835  13.367  1.00  0.00     0.065 A 
HETATM    4  C   UNL     1      57.069   1.485  12.030  1.00  0.00     0.035 A 
HETATM    5  C   UNL     1      59.413   0.973  11.775  1.00  0.00     0.119 A 
HETATM    6  F   UNL     1      58.788   1.933  15.198  1.00  0.00    -0.204 F 
HETATM    7  C   UNL     1      58.138   1.075  11.228  1.00  0.00     0.044 A 
HETATM    8  F   UNL     1      60.431   0.576  11.001  1.00  0.00    -0.206 F 
ENDROOT
BRANCH   3   9
HETATM    9  N   UNL     1      56.191   2.124  14.200  1.00  0.00    -0.397 N 
HETATM   10  H   UNL     1      55.963   1.517  14.941  1.00  0.00     0.156 HD
HETATM   11  H   UNL     1      55.652   2.933  14.043  1.00  0.00     0.156 HD
ENDBRANCH   3   9
TORSDOF 1
ENDMDL
