MODEL 1
REMARK VINA RESULT:      -4.4      0.000      0.000
REMARK  1 active torsions:
REMARK  status: ('A' for Active; 'I' for Inactive)
REMARK    1  A    between atoms: C_1  and  O_8 
ROOT
HETATM    1  C   UNL     1      61.954  10.606   2.777  1.00  0.00     0.145 A 
HETATM    2  C   UNL     1      62.293   9.401   2.289  1.00  0.00     0.085 A 
HETATM    3  C   UNL     1      62.258  10.912   4.200  1.00  0.00     0.209 A 
HETATM    4  C   UNL     1      62.922   9.863   4.988  1.00  0.00     0.082 A 
HETATM    5  O   UNL     1      62.911   8.426   3.064  1.00  0.00    -0.324 OA
HETATM    6  C   UNL     1      63.197   8.709   4.378  1.00  0.00     0.146 A 
HETATM    7  O   UNL     1      61.961  12.003   4.677  1.00  0.00    -0.285 OA
HETATM    8  C   UNL     1      62.054   8.976   0.875  1.00  0.00     0.079 C 
ENDROOT
BRANCH   1   9
HETATM    9  O   UNL     1      61.335  11.586   2.025  1.00  0.00    -0.355 OA
HETATM   10  H   UNL     1      60.462  11.855   2.234  1.00  0.00     0.218 HD
ENDBRANCH   1   9
TORSDOF 1
ENDMDL
MODEL 2
REMARK VINA RESULT:      -4.4      1.320      2.178
REMARK  1 active torsions:
REMARK  status: ('A' for Active; 'I' for Inactive)
REMARK    1  A    between atoms: C_1  and  O_8 
ROOT
HETATM    1  C   UNL     1      62.306  10.808   4.083  1.00  0.00     0.145 A 
HETATM    2  C   UNL     1      62.049  10.734   2.768  1.00  0.00     0.085 A 
HETATM    3  C   UNL     1      62.767   9.584   4.792  1.00  0.00     0.209 A 
HETATM    4  C   UNL     1      62.916   8.359   3.992  1.00  0.00     0.082 A 
HETATM    5  O   UNL     1      62.191   9.557   2.041  1.00  0.00    -0.324 OA
HETATM    6  C   UNL     1      62.621   8.426   2.693  1.00  0.00     0.146 A 
HETATM    7  O   UNL     1      63.009   9.618   5.994  1.00  0.00    -0.285 OA
HETATM    8  C   UNL     1      61.594  11.894   1.939  1.00  0.00     0.079 C 
ENDROOT
BRANCH   1   9
HETATM    9  O   UNL     1      62.167  11.967   4.823  1.00  0.00    -0.355 OA
HETATM   10  H   UNL     1      61.349  12.162   5.237  1.00  0.00     0.218 HD
ENDBRANCH   1   9
TORSDOF 1
ENDMDL
MODEL 3
REMARK VINA RESULT:      -4.4      1.372      2.993
REMARK  1 active torsions:
REMARK  status: ('A' for Active; 'I' for Inactive)
REMARK    1  A    between atoms: C_1  and  O_8 
ROOT
HETATM    1  C   UNL     1      63.544  10.290   5.134  1.00  0.00     0.145 A 
HETATM    2  C   UNL     1      63.979   9.061   4.815  1.00  0.00     0.085 A 
HETATM    3  C   UNL     1      62.379  10.849   4.398  1.00  0.00     0.209 A 
HETATM    4  C   UNL     1      61.770  10.005   3.359  1.00  0.00     0.082 A 
HETATM    5  O   UNL     1      63.387   8.290   3.820  1.00  0.00    -0.324 OA
HETATM    6  C   UNL     1      62.308   8.804   3.142  1.00  0.00     0.146 A 
HETATM    7  O   UNL     1      61.957  11.970   4.664  1.00  0.00    -0.285 OA
HETATM    8  C   UNL     1      65.130   8.381   5.489  1.00  0.00     0.079 C 
ENDROOT
BRANCH   1   9
HETATM    9  O   UNL     1      64.122  11.072   6.116  1.00  0.00    -0.355 OA
HETATM   10  H   UNL     1      64.362  10.690   6.938  1.00  0.00     0.218 HD
ENDBRANCH   1   9
TORSDOF 1
ENDMDL
MODEL 4
REMARK VINA RESULT:      -4.2      0.753      2.715
REMARK  1 active torsions:
REMARK  status: ('A' for Active; 'I' for Inactive)
REMARK    1  A    between atoms: C_1  and  O_8 
ROOT
HETATM    1  C   UNL     1      62.248  10.709   3.743  1.00  0.00     0.145 A 
HETATM    2  C   UNL     1      62.541   9.447   4.095  1.00  0.00     0.085 A 
HETATM    3  C   UNL     1      61.946  11.002   2.316  1.00  0.00     0.209 A 
HETATM    4  C   UNL     1      61.984   9.873   1.374  1.00  0.00     0.082 A 
HETATM    5  O   UNL     1      62.579   8.402   3.178  1.00  0.00    -0.324 OA
HETATM    6  C   UNL     1      62.295   8.670   1.860  1.00  0.00     0.146 A 
HETATM    7  O   UNL     1      61.676  12.144   1.961  1.00  0.00    -0.285 OA
HETATM    8  C   UNL     1      62.850   9.021   5.495  1.00  0.00     0.079 C 
ENDROOT
BRANCH   1   9
HETATM    9  O   UNL     1      62.211  11.761   4.638  1.00  0.00    -0.355 OA
HETATM   10  H   UNL     1      62.193  12.643   4.323  1.00  0.00     0.218 HD
ENDBRANCH   1   9
TORSDOF 1
ENDMDL
MODEL 5
REMARK VINA RESULT:      -3.9      1.251      2.670
REMARK  1 active torsions:
REMARK  status: ('A' for Active; 'I' for Inactive)
REMARK    1  A    between atoms: C_1  and  O_8 
ROOT
HETATM    1  C   UNL     1      62.233   9.777   2.826  1.00  0.00     0.145 A 
HETATM    2  C   UNL     1      62.001  11.088   3.002  1.00  0.00     0.085 A 
HETATM    3  C   UNL     1      62.729   8.978   3.977  1.00  0.00     0.209 A 
HETATM    4  C   UNL     1      62.932   9.685   5.251  1.00  0.00     0.082 A 
HETATM    5  O   UNL     1      62.212  11.730   4.217  1.00  0.00    -0.324 OA
HETATM    6  C   UNL     1      62.666  10.992   5.283  1.00  0.00     0.146 A 
HETATM    7  O   UNL     1      62.952   7.778   3.850  1.00  0.00    -0.285 OA
HETATM    8  C   UNL     1      61.489  11.997   1.929  1.00  0.00     0.079 C 
ENDROOT
BRANCH   1   9
HETATM    9  O   UNL     1      62.034   9.122   1.625  1.00  0.00    -0.355 OA
HETATM   10  H   UNL     1      62.730   8.626   1.241  1.00  0.00     0.218 HD
ENDBRANCH   1   9
TORSDOF 1
ENDMDL
MODEL 6
REMARK VINA RESULT:      -3.8      1.286      2.695
REMARK  1 active torsions:
REMARK  status: ('A' for Active; 'I' for Inactive)
REMARK    1  A    between atoms: C_1  and  O_8 
ROOT
HETATM    1  C   UNL     1      63.033   8.834   3.634  1.00  0.00     0.145 A 
HETATM    2  C   UNL     1      62.274   9.613   2.847  1.00  0.00     0.085 A 
HETATM    3  C   UNL     1      63.425   9.340   4.976  1.00  0.00     0.209 A 
HETATM    4  C   UNL     1      62.944  10.676   5.359  1.00  0.00     0.082 A 
HETATM    5  O   UNL     1      61.844  10.878   3.234  1.00  0.00    -0.324 OA
HETATM    6  C   UNL     1      62.201  11.345   4.476  1.00  0.00     0.146 A 
HETATM    7  O   UNL     1      64.118   8.653   5.719  1.00  0.00    -0.285 OA
HETATM    8  C   UNL     1      61.802   9.216   1.483  1.00  0.00     0.079 C 
ENDROOT
BRANCH   1   9
HETATM    9  O   UNL     1      63.474   7.578   3.264  1.00  0.00    -0.355 OA
HETATM   10  H   UNL     1      63.436   7.313   2.366  1.00  0.00     0.218 HD
ENDBRANCH   1   9
TORSDOF 1
ENDMDL
MODEL 7
REMARK VINA RESULT:      -3.8      1.358      2.865
REMARK  1 active torsions:
REMARK  status: ('A' for Active; 'I' for Inactive)
REMARK    1  A    between atoms: C_1  and  O_8 
ROOT
HETATM    1  C   UNL     1      62.112  10.246   3.373  1.00  0.00     0.145 A 
HETATM    2  C   UNL     1      62.819  10.049   4.497  1.00  0.00     0.085 A 
HETATM    3  C   UNL     1      62.111   9.182   2.333  1.00  0.00     0.209 A 
HETATM    4  C   UNL     1      62.891   7.967   2.612  1.00  0.00     0.082 A 
HETATM    5  O   UNL     1      63.556   8.893   4.726  1.00  0.00    -0.324 OA
HETATM    6  C   UNL     1      63.552   7.907   3.769  1.00  0.00     0.146 A 
HETATM    7  O   UNL     1      61.476   9.330   1.294  1.00  0.00    -0.285 OA
HETATM    8  C   UNL     1      62.891  11.034   5.621  1.00  0.00     0.079 C 
ENDROOT
BRANCH   1   9
HETATM    9  O   UNL     1      61.378  11.390   3.124  1.00  0.00    -0.355 OA
HETATM   10  H   UNL     1      60.578  11.337   2.638  1.00  0.00     0.218 HD
ENDBRANCH   1   9
TORSDOF 1
ENDMDL
MODEL 8
REMARK VINA RESULT:      -3.8      2.196      3.385
REMARK  1 active torsions:
REMARK  status: ('A' for Active; 'I' for Inactive)
REMARK    1  A    between atoms: C_1  and  O_8 
ROOT
HETATM    1  C   UNL     1      63.847   9.354   5.044  1.00  0.00     0.145 A 
HETATM    2  C   UNL     1      63.000   8.984   4.070  1.00  0.00     0.085 A 
HETATM    3  C   UNL     1      65.040   8.508   5.314  1.00  0.00     0.209 A 
HETATM    4  C   UNL     1      65.216   7.308   4.482  1.00  0.00     0.082 A 
HETATM    5  O   UNL     1      63.189   7.836   3.308  1.00  0.00    -0.324 OA
HETATM    6  C   UNL     1      64.293   7.056   3.552  1.00  0.00     0.146 A 
HETATM    7  O   UNL     1      65.833   8.818   6.197  1.00  0.00    -0.285 OA
HETATM    8  C   UNL     1      61.774   9.754   3.692  1.00  0.00     0.079 C 
ENDROOT
BRANCH   1   9
HETATM    9  O   UNL     1      63.672  10.487   5.815  1.00  0.00    -0.355 OA
HETATM   10  H   UNL     1      64.135  11.274   5.602  1.00  0.00     0.218 HD
ENDBRANCH   1   9
TORSDOF 1
ENDMDL
MODEL 9
REMARK VINA RESULT:      -3.7      1.718      3.389
REMARK  1 active torsions:
REMARK  status: ('A' for Active; 'I' for Inactive)
REMARK    1  A    between atoms: C_1  and  O_8 
ROOT
HETATM    1  C   UNL     1      63.393   8.660   3.814  1.00  0.00     0.145 A 
HETATM    2  C   UNL     1      64.118   8.891   4.920  1.00  0.00     0.085 A 
HETATM    3  C   UNL     1      62.333   9.632   3.437  1.00  0.00     0.209 A 
HETATM    4  C   UNL     1      62.149  10.801   4.311  1.00  0.00     0.082 A 
HETATM    5  O   UNL     1      63.913  10.001   5.732  1.00  0.00    -0.324 OA
HETATM    6  C   UNL     1      62.937  10.904   5.383  1.00  0.00     0.146 A 
HETATM    7  O   UNL     1      61.652   9.450   2.433  1.00  0.00    -0.285 OA
HETATM    8  C   UNL     1      65.219   7.998   5.399  1.00  0.00     0.079 C 
ENDROOT
BRANCH   1   9
HETATM    9  O   UNL     1      63.578   7.560   2.998  1.00  0.00    -0.355 OA
HETATM   10  H   UNL     1      64.303   6.984   3.145  1.00  0.00     0.218 HD
ENDBRANCH   1   9
TORSDOF 1
ENDMDL
