MODEL 1
REMARK VINA RESULT:      -5.0      0.000      0.000
REMARK  0 active torsions:
REMARK  status: ('A' for Active; 'I' for Inactive)
ROOT
HETATM    1  C   UNL     1      62.746   9.657   4.162  1.00  0.00     0.105 A 
HETATM    2  C   UNL     1      62.189  10.814   3.673  1.00  0.00     0.105 A 
HETATM    3  O   UNL     1      63.128   9.772   5.462  1.00  0.00    -0.323 OA
HETATM    4  O   UNL     1      62.148  11.803   4.605  1.00  0.00    -0.323 OA
HETATM    5  C   UNL     1      62.756  11.138   5.733  1.00  0.00     0.352 A 
HETATM    6  C   UNL     1      62.884   8.529   3.381  1.00  0.00     0.046 A 
HETATM    7  C   UNL     1      61.736  10.907   2.375  1.00  0.00     0.040 A 
HETATM    8  C   UNL     1      62.437   8.586   2.053  1.00  0.00    -0.059 A 
HETATM    9  C   UNL     1      61.864   9.778   1.557  1.00  0.00     0.010 A 
HETATM   10  C   UNL     1      62.577   7.374   1.178  1.00  0.00     0.048 C 
ENDROOT
TORSDOF 0
ENDMDL
MODEL 2
REMARK VINA RESULT:      -4.9      0.759      2.017
REMARK  0 active torsions:
REMARK  status: ('A' for Active; 'I' for Inactive)
ROOT
HETATM    1  C   UNL     1      62.327  10.435   3.803  1.00  0.00     0.105 A 
HETATM    2  C   UNL     1      63.049   9.518   4.528  1.00  0.00     0.105 A 
HETATM    3  O   UNL     1      62.103  11.585   4.493  1.00  0.00    -0.323 OA
HETATM    4  O   UNL     1      63.373   9.977   5.767  1.00  0.00    -0.323 OA
HETATM    5  C   UNL     1      62.760  11.283   5.741  1.00  0.00     0.352 A 
HETATM    6  C   UNL     1      61.896  10.171   2.520  1.00  0.00     0.046 A 
HETATM    7  C   UNL     1      63.382   8.285   4.010  1.00  0.00     0.040 A 
HETATM    8  C   UNL     1      62.214   8.925   1.959  1.00  0.00    -0.059 A 
HETATM    9  C   UNL     1      62.958   7.988   2.709  1.00  0.00     0.010 A 
HETATM   10  C   UNL     1      61.756   8.609   0.565  1.00  0.00     0.048 C 
ENDROOT
TORSDOF 0
ENDMDL
MODEL 3
REMARK VINA RESULT:      -4.4      1.612      2.979
REMARK  0 active torsions:
REMARK  status: ('A' for Active; 'I' for Inactive)
ROOT
HETATM    1  C   UNL     1      62.288  10.337   3.712  1.00  0.00     0.105 A 
HETATM    2  C   UNL     1      62.250   9.706   2.492  1.00  0.00     0.105 A 
HETATM    3  O   UNL     1      61.973  11.656   3.626  1.00  0.00    -0.323 OA
HETATM    4  O   UNL     1      61.902  10.550   1.484  1.00  0.00    -0.323 OA
HETATM    5  C   UNL     1      61.739  11.787   2.210  1.00  0.00     0.352 A 
HETATM    6  C   UNL     1      62.619   9.663   4.869  1.00  0.00     0.046 A 
HETATM    7  C   UNL     1      62.538   8.365   2.360  1.00  0.00     0.040 A 
HETATM    8  C   UNL     1      62.922   8.297   4.775  1.00  0.00    -0.059 A 
HETATM    9  C   UNL     1      62.879   7.654   3.518  1.00  0.00     0.010 A 
HETATM   10  C   UNL     1      63.288   7.538   6.017  1.00  0.00     0.048 C 
ENDROOT
TORSDOF 0
ENDMDL
MODEL 4
REMARK VINA RESULT:      -4.4      2.071      3.666
REMARK  0 active torsions:
REMARK  status: ('A' for Active; 'I' for Inactive)
ROOT
HETATM    1  C   UNL     1      62.540   8.800   2.664  1.00  0.00     0.105 A 
HETATM    2  C   UNL     1      62.017   9.609   1.684  1.00  0.00     0.105 A 
HETATM    3  O   UNL     1      62.770   7.534   2.226  1.00  0.00    -0.323 OA
HETATM    4  O   UNL     1      61.854   8.953   0.504  1.00  0.00    -0.323 OA
HETATM    5  C   UNL     1      62.323   7.635   0.860  1.00  0.00     0.352 A 
HETATM    6  C   UNL     1      62.786   9.267   3.938  1.00  0.00     0.046 A 
HETATM    7  C   UNL     1      61.711  10.931   1.924  1.00  0.00     0.040 A 
HETATM    8  C   UNL     1      62.485  10.607   4.221  1.00  0.00    -0.059 A 
HETATM    9  C   UNL     1      61.948  11.433   3.209  1.00  0.00     0.010 A 
HETATM   10  C   UNL     1      62.739  11.142   5.601  1.00  0.00     0.048 C 
ENDROOT
TORSDOF 0
ENDMDL
MODEL 5
REMARK VINA RESULT:      -4.3      1.686      2.483
REMARK  0 active torsions:
REMARK  status: ('A' for Active; 'I' for Inactive)
ROOT
HETATM    1  C   UNL     1      63.826   8.354   3.964  1.00  0.00     0.105 A 
HETATM    2  C   UNL     1      63.660   9.422   4.813  1.00  0.00     0.105 A 
HETATM    3  O   UNL     1      64.859   7.551   4.333  1.00  0.00    -0.323 OA
HETATM    4  O   UNL     1      64.567   9.423   5.826  1.00  0.00    -0.323 OA
HETATM    5  C   UNL     1      65.330   8.240   5.508  1.00  0.00     0.352 A 
HETATM    6  C   UNL     1      63.010   8.163   2.868  1.00  0.00     0.046 A 
HETATM    7  C   UNL     1      62.667  10.357   4.615  1.00  0.00     0.040 A 
HETATM    8  C   UNL     1      61.990   9.096   2.633  1.00  0.00    -0.059 A 
HETATM    9  C   UNL     1      61.824  10.190   3.510  1.00  0.00     0.010 A 
HETATM   10  C   UNL     1      61.089   8.914   1.446  1.00  0.00     0.048 C 
ENDROOT
TORSDOF 0
ENDMDL
MODEL 6
REMARK VINA RESULT:      -4.2      2.645      3.845
REMARK  0 active torsions:
REMARK  status: ('A' for Active; 'I' for Inactive)
ROOT
HETATM    1  C   UNL     1      64.750   8.675   5.163  1.00  0.00     0.105 A 
HETATM    2  C   UNL     1      65.193   7.485   4.636  1.00  0.00     0.105 A 
HETATM    3  O   UNL     1      65.540   9.122   6.175  1.00  0.00    -0.323 OA
HETATM    4  O   UNL     1      66.320   7.035   5.250  1.00  0.00    -0.323 OA
HETATM    5  C   UNL     1      66.527   8.072   6.231  1.00  0.00     0.352 A 
HETATM    6  C   UNL     1      63.622   9.307   4.685  1.00  0.00     0.046 A 
HETATM    7  C   UNL     1      64.532   6.861   3.600  1.00  0.00     0.040 A 
HETATM    8  C   UNL     1      62.920   8.701   3.632  1.00  0.00    -0.059 A 
HETATM    9  C   UNL     1      63.381   7.479   3.095  1.00  0.00     0.010 A 
HETATM   10  C   UNL     1      61.686   9.365   3.094  1.00  0.00     0.048 C 
ENDROOT
TORSDOF 0
ENDMDL
MODEL 7
REMARK VINA RESULT:      -4.1      1.953      3.550
REMARK  0 active torsions:
REMARK  status: ('A' for Active; 'I' for Inactive)
ROOT
HETATM    1  C   UNL     1      62.668   8.403   2.628  1.00  0.00     0.105 A 
HETATM    2  C   UNL     1      62.918   8.430   3.979  1.00  0.00     0.105 A 
HETATM    3  O   UNL     1      62.910   7.184   2.077  1.00  0.00    -0.323 OA
HETATM    4  O   UNL     1      63.347   7.228   4.449  1.00  0.00    -0.323 OA
HETATM    5  C   UNL     1      63.349   6.447   3.235  1.00  0.00     0.352 A 
HETATM    6  C   UNL     1      62.225   9.518   1.948  1.00  0.00     0.046 A 
HETATM    7  C   UNL     1      62.737   9.573   4.727  1.00  0.00     0.040 A 
HETATM    8  C   UNL     1      62.031  10.702   2.676  1.00  0.00    -0.059 A 
HETATM    9  C   UNL     1      62.288  10.722   4.064  1.00  0.00     0.010 A 
HETATM   10  C   UNL     1      61.551  11.933   1.961  1.00  0.00     0.048 C 
ENDROOT
TORSDOF 0
ENDMDL
MODEL 8
REMARK VINA RESULT:      -4.1      1.791      3.303
REMARK  0 active torsions:
REMARK  status: ('A' for Active; 'I' for Inactive)
ROOT
HETATM    1  C   UNL     1      62.378   8.496   3.708  1.00  0.00     0.105 A 
HETATM    2  C   UNL     1      62.437   7.633   2.640  1.00  0.00     0.105 A 
HETATM    3  O   UNL     1      62.562   7.865   4.898  1.00  0.00    -0.323 OA
HETATM    4  O   UNL     1      62.667   6.349   3.025  1.00  0.00    -0.323 OA
HETATM    5  C   UNL     1      62.734   6.504   4.458  1.00  0.00     0.352 A 
HETATM    6  C   UNL     1      62.154   9.846   3.540  1.00  0.00     0.046 A 
HETATM    7  C   UNL     1      62.275   8.073   1.344  1.00  0.00     0.040 A 
HETATM    8  C   UNL     1      61.981  10.331   2.235  1.00  0.00    -0.059 A 
HETATM    9  C   UNL     1      62.044   9.439   1.143  1.00  0.00     0.010 A 
HETATM   10  C   UNL     1      61.731  11.796   2.023  1.00  0.00     0.048 C 
ENDROOT
TORSDOF 0
ENDMDL
MODEL 9
REMARK VINA RESULT:      -4.1      1.731      2.291
REMARK  0 active torsions:
REMARK  status: ('A' for Active; 'I' for Inactive)
ROOT
HETATM    1  C   UNL     1      63.927   9.079   4.852  1.00  0.00     0.105 A 
HETATM    2  C   UNL     1      62.822   9.321   4.073  1.00  0.00     0.105 A 
HETATM    3  O   UNL     1      64.110  10.030   5.806  1.00  0.00    -0.323 OA
HETATM    4  O   UNL     1      62.168  10.455   4.440  1.00  0.00    -0.323 OA
HETATM    5  C   UNL     1      62.997  10.904   5.532  1.00  0.00     0.352 A 
HETATM    6  C   UNL     1      64.733   7.979   4.649  1.00  0.00     0.046 A 
HETATM    7  C   UNL     1      62.460   8.475   3.046  1.00  0.00     0.040 A 
HETATM    8  C   UNL     1      64.399   7.096   3.611  1.00  0.00    -0.059 A 
HETATM    9  C   UNL     1      63.261   7.350   2.815  1.00  0.00     0.010 A 
HETATM   10  C   UNL     1      65.260   5.891   3.365  1.00  0.00     0.048 C 
ENDROOT
TORSDOF 0
ENDMDL
