MODEL 1
REMARK VINA RESULT:      -4.0      0.000      0.000
REMARK  0 active torsions:
REMARK  status: ('A' for Active; 'I' for Inactive)
ROOT
HETATM    1  N   UNL     1      62.112  12.105   4.524  1.00  0.00    -0.245 N 
ATOM      2  HN  UNL     1      61.986  13.082   4.785  1.00  0.00     0.196 HD
HETATM    3  C   UNL     1      62.686   9.913   4.567  1.00  0.00     0.084 A 
HETATM    4  C   UNL     1      62.708  11.150   5.239  1.00  0.00     0.121 A 
HETATM    5  O   UNL     1      61.699  11.493   3.351  1.00  0.00    -0.241 OA
HETATM    6  C   UNL     1      62.050  10.181   3.381  1.00  0.00     0.076 A 
HETATM    7  N   UNL     1      63.265  11.327   6.446  1.00  0.00    -0.384 N 
HETATM    8  C   UNL     1      61.695   9.381   2.197  1.00  0.00     0.079 C 
HETATM    9  H   UNL     1      63.687  10.568   6.908  1.00  0.00     0.157 HD
HETATM   10  H   UNL     1      63.253  12.215   6.867  1.00  0.00     0.157 HD
ENDROOT
TORSDOF 0
ENDMDL
MODEL 2
REMARK VINA RESULT:      -4.0      2.028      3.161
REMARK  0 active torsions:
REMARK  status: ('A' for Active; 'I' for Inactive)
ROOT
HETATM    1  N   UNL     1      61.561  11.445   2.251  1.00  0.00    -0.245 N 
ATOM      2  HN  UNL     1      61.180  12.004   1.487  1.00  0.00     0.196 HD
HETATM    3  C   UNL     1      62.356   9.707   3.469  1.00  0.00     0.084 A 
HETATM    4  C   UNL     1      61.825  10.137   2.238  1.00  0.00     0.121 A 
HETATM    5  O   UNL     1      61.912  11.887   3.516  1.00  0.00    -0.241 OA
HETATM    6  C   UNL     1      62.383  10.840   4.243  1.00  0.00     0.076 A 
HETATM    7  N   UNL     1      61.615   9.320   1.197  1.00  0.00    -0.384 N 
HETATM    8  C   UNL     1      62.792  11.134   5.627  1.00  0.00     0.079 C 
HETATM    9  H   UNL     1      61.837   8.364   1.269  1.00  0.00     0.157 HD
HETATM   10  H   UNL     1      61.238   9.675   0.360  1.00  0.00     0.157 HD
ENDROOT
TORSDOF 0
ENDMDL
MODEL 3
REMARK VINA RESULT:      -3.7      1.546      1.733
REMARK  0 active torsions:
REMARK  status: ('A' for Active; 'I' for Inactive)
ROOT
HETATM    1  N   UNL     1      63.733   9.530   5.313  1.00  0.00    -0.245 N 
ATOM      2  HN  UNL     1      64.404   9.082   5.937  1.00  0.00     0.196 HD
HETATM    3  C   UNL     1      62.264  11.007   4.421  1.00  0.00     0.084 A 
HETATM    4  C   UNL     1      63.115  10.697   5.499  1.00  0.00     0.121 A 
HETATM    5  O   UNL     1      63.274   9.052   4.096  1.00  0.00    -0.241 OA
HETATM    6  C   UNL     1      62.390   9.940   3.569  1.00  0.00     0.076 A 
HETATM    7  N   UNL     1      63.269  11.487   6.572  1.00  0.00    -0.384 N 
HETATM    8  C   UNL     1      61.793   9.578   2.273  1.00  0.00     0.079 C 
HETATM    9  H   UNL     1      62.774  12.335   6.633  1.00  0.00     0.157 HD
HETATM   10  H   UNL     1      63.876  11.218   7.298  1.00  0.00     0.157 HD
ENDROOT
TORSDOF 0
ENDMDL
MODEL 4
REMARK VINA RESULT:      -3.6      4.820      5.419
REMARK  0 active torsions:
REMARK  status: ('A' for Active; 'I' for Inactive)
ROOT
HETATM    1  N   UNL     1      66.885   8.608   7.021  1.00  0.00    -0.245 N 
ATOM      2  HN  UNL     1      67.449   9.074   7.732  1.00  0.00     0.196 HD
HETATM    3  C   UNL     1      66.069   7.054   5.587  1.00  0.00     0.084 A 
HETATM    4  C   UNL     1      67.039   7.366   6.559  1.00  0.00     0.121 A 
HETATM    5  O   UNL     1      65.802   9.133   6.335  1.00  0.00    -0.241 OA
HETATM    6  C   UNL     1      65.320   8.198   5.474  1.00  0.00     0.076 A 
HETATM    7  N   UNL     1      67.992   6.510   6.955  1.00  0.00    -0.384 N 
HETATM    8  C   UNL     1      64.167   8.599   4.651  1.00  0.00     0.079 C 
HETATM    9  H   UNL     1      68.037   5.608   6.562  1.00  0.00     0.157 HD
HETATM   10  H   UNL     1      68.647   6.783   7.636  1.00  0.00     0.157 HD
ENDROOT
TORSDOF 0
ENDMDL
MODEL 5
REMARK VINA RESULT:      -3.6      2.455      3.245
REMARK  0 active torsions:
REMARK  status: ('A' for Active; 'I' for Inactive)
ROOT
HETATM    1  N   UNL     1      63.163  10.525   5.474  1.00  0.00    -0.245 N 
ATOM      2  HN  UNL     1      62.779  11.362   5.912  1.00  0.00     0.196 HD
HETATM    3  C   UNL     1      63.451   8.737   4.110  1.00  0.00     0.084 A 
HETATM    4  C   UNL     1      62.638   9.832   4.462  1.00  0.00     0.121 A 
HETATM    5  O   UNL     1      64.338   9.871   5.807  1.00  0.00    -0.241 OA
HETATM    6  C   UNL     1      64.503   8.798   4.990  1.00  0.00     0.076 A 
HETATM    7  N   UNL     1      61.483  10.124   3.847  1.00  0.00    -0.384 N 
HETATM    8  C   UNL     1      65.704   7.978   5.219  1.00  0.00     0.079 C 
HETATM    9  H   UNL     1      61.165   9.560   3.106  1.00  0.00     0.157 HD
HETATM   10  H   UNL     1      60.954  10.900   4.137  1.00  0.00     0.157 HD
ENDROOT
TORSDOF 0
ENDMDL
MODEL 6
REMARK VINA RESULT:      -3.0      2.242      3.070
REMARK  0 active torsions:
REMARK  status: ('A' for Active; 'I' for Inactive)
ROOT
HETATM    1  N   UNL     1      61.010   9.160   3.246  1.00  0.00    -0.245 N 
ATOM      2  HN  UNL     1      60.240   9.094   2.581  1.00  0.00     0.196 HD
HETATM    3  C   UNL     1      62.748   9.948   4.470  1.00  0.00     0.084 A 
HETATM    4  C   UNL     1      61.794  10.216   3.469  1.00  0.00     0.121 A 
HETATM    5  O   UNL     1      61.459   8.170   4.106  1.00  0.00    -0.241 OA
HETATM    6  C   UNL     1      62.504   8.647   4.833  1.00  0.00     0.076 A 
HETATM    7  N   UNL     1      61.703  11.390   2.829  1.00  0.00    -0.384 N 
HETATM    8  C   UNL     1      63.114   7.713   5.793  1.00  0.00     0.079 C 
HETATM    9  H   UNL     1      62.323  12.121   3.052  1.00  0.00     0.157 HD
HETATM   10  H   UNL     1      61.018  11.521   2.135  1.00  0.00     0.157 HD
ENDROOT
TORSDOF 0
ENDMDL
MODEL 7
REMARK VINA RESULT:      -3.0     13.638     14.173
REMARK  0 active torsions:
REMARK  status: ('A' for Active; 'I' for Inactive)
ROOT
HETATM    1  N   UNL     1      58.845   2.028  14.047  1.00  0.00    -0.245 N 
ATOM      2  HN  UNL     1      58.611   2.938  14.442  1.00  0.00     0.196 HD
HETATM    3  C   UNL     1      58.731  -0.139  13.394  1.00  0.00     0.084 A 
HETATM    4  C   UNL     1      58.085   0.932  14.040  1.00  0.00     0.121 A 
HETATM    5  O   UNL     1      60.021   1.673  13.406  1.00  0.00    -0.241 OA
HETATM    6  C   UNL     1      59.948   0.371  13.021  1.00  0.00     0.076 A 
HETATM    7  N   UNL     1      56.860   0.843  14.577  1.00  0.00    -0.384 N 
HETATM    8  C   UNL     1      61.129  -0.175  12.331  1.00  0.00     0.079 C 
HETATM    9  H   UNL     1      56.363  -0.006  14.530  1.00  0.00     0.157 HD
HETATM   10  H   UNL     1      56.458   1.624  15.019  1.00  0.00     0.157 HD
ENDROOT
TORSDOF 0
ENDMDL
MODEL 8
REMARK VINA RESULT:      -3.0      7.419      8.155
REMARK  0 active torsions:
REMARK  status: ('A' for Active; 'I' for Inactive)
ROOT
HETATM    1  N   UNL     1      65.979   6.443   8.631  1.00  0.00    -0.245 N 
ATOM      2  HN  UNL     1      65.193   6.955   9.030  1.00  0.00     0.196 HD
HETATM    3  C   UNL     1      67.830   5.912   7.436  1.00  0.00     0.084 A 
HETATM    4  C   UNL     1      66.876   6.898   7.756  1.00  0.00     0.121 A 
HETATM    5  O   UNL     1      66.337   5.129   8.887  1.00  0.00    -0.241 OA
HETATM    6  C   UNL     1      67.444   4.815   8.164  1.00  0.00     0.076 A 
HETATM    7  N   UNL     1      66.884   8.132   7.233  1.00  0.00    -0.384 N 
HETATM    8  C   UNL     1      67.954   3.442   8.310  1.00  0.00     0.079 C 
HETATM    9  H   UNL     1      67.583   8.389   6.590  1.00  0.00     0.157 HD
HETATM   10  H   UNL     1      66.190   8.780   7.490  1.00  0.00     0.157 HD
ENDROOT
TORSDOF 0
ENDMDL
MODEL 9
REMARK VINA RESULT:      -3.0      6.403      7.195
REMARK  0 active torsions:
REMARK  status: ('A' for Active; 'I' for Inactive)
ROOT
HETATM    1  N   UNL     1      66.802   8.054   5.997  1.00  0.00    -0.245 N 
ATOM      2  HN  UNL     1      66.594   8.838   5.379  1.00  0.00     0.196 HD
HETATM    3  C   UNL     1      67.502   6.047   6.782  1.00  0.00     0.084 A 
HETATM    4  C   UNL     1      67.355   6.888   5.663  1.00  0.00     0.121 A 
HETATM    5  O   UNL     1      66.566   7.981   7.361  1.00  0.00    -0.241 OA
HETATM    6  C   UNL     1      66.984   6.774   7.825  1.00  0.00     0.076 A 
HETATM    7  N   UNL     1      67.728   6.541   4.422  1.00  0.00    -0.384 N 
HETATM    8  C   UNL     1      66.794   6.523   9.263  1.00  0.00     0.079 C 
HETATM    9  H   UNL     1      68.130   5.658   4.259  1.00  0.00     0.157 HD
HETATM   10  H   UNL     1      67.599   7.168   3.676  1.00  0.00     0.157 HD
ENDROOT
TORSDOF 0
ENDMDL
