MODEL 1
REMARK VINA RESULT:      -5.5      0.000      0.000
REMARK  0 active torsions:
REMARK  status: ('A' for Active; 'I' for Inactive)
ROOT
HETATM    1  O   UNL     1      64.307   9.787   5.715  1.00  0.00    -0.275 OA
HETATM    2  C   UNL     1      63.590  10.958   5.907  1.00  0.00     0.288 A 
HETATM    3  C   UNL     1      63.973   8.892   4.680  1.00  0.00     0.089 A 
HETATM    4  C   UNL     1      62.911   9.154   3.816  1.00  0.00    -0.002 A 
HETATM    5  C   UNL     1      62.150  10.381   3.991  1.00  0.00     0.020 A 
HETATM    6  C   UNL     1      62.480  11.223   4.976  1.00  0.00     0.083 A 
HETATM    7  C   UNL     1      62.616   8.229   2.810  1.00  0.00     0.021 A 
HETATM    8  O   UNL     1      63.856  11.751   6.804  1.00  0.00    -0.260 OA
HETATM    9  C   UNL     1      64.747   7.744   4.559  1.00  0.00     0.039 A 
HETATM   10  C   UNL     1      63.385   7.060   2.670  1.00  0.00    -0.061 A 
HETATM   11  C   UNL     1      64.451   6.828   3.550  1.00  0.00     0.009 A 
HETATM   12  C   UNL     1      63.061   6.072   1.588  1.00  0.00     0.048 C 
ENDROOT
TORSDOF 0
ENDMDL
MODEL 2
REMARK VINA RESULT:      -5.2      1.386      3.196
REMARK  0 active torsions:
REMARK  status: ('A' for Active; 'I' for Inactive)
ROOT
HETATM    1  O   UNL     1      64.701   9.186   5.721  1.00  0.00    -0.275 OA
HETATM    2  C   UNL     1      65.704   8.251   5.933  1.00  0.00     0.288 A 
HETATM    3  C   UNL     1      63.799   9.052   4.648  1.00  0.00     0.089 A 
HETATM    4  C   UNL     1      63.885   7.979   3.763  1.00  0.00    -0.002 A 
HETATM    5  C   UNL     1      64.923   6.980   3.971  1.00  0.00     0.020 A 
HETATM    6  C   UNL     1      65.771   7.117   4.995  1.00  0.00     0.083 A 
HETATM    7  C   UNL     1      62.970   7.897   2.710  1.00  0.00     0.021 A 
HETATM    8  O   UNL     1      66.506   8.348   6.856  1.00  0.00    -0.260 OA
HETATM    9  C   UNL     1      62.824  10.034   4.513  1.00  0.00     0.039 A 
HETATM   10  C   UNL     1      61.977   8.880   2.553  1.00  0.00    -0.061 A 
HETATM   11  C   UNL     1      61.911   9.944   3.463  1.00  0.00     0.009 A 
HETATM   12  C   UNL     1      60.998   8.785   1.418  1.00  0.00     0.048 C 
ENDROOT
TORSDOF 0
ENDMDL
MODEL 3
REMARK VINA RESULT:      -5.2      1.615      2.004
REMARK  0 active torsions:
REMARK  status: ('A' for Active; 'I' for Inactive)
ROOT
HETATM    1  O   UNL     1      62.623   9.948   4.276  1.00  0.00    -0.275 OA
HETATM    2  C   UNL     1      62.092  11.162   3.864  1.00  0.00     0.288 A 
HETATM    3  C   UNL     1      62.775   8.879   3.372  1.00  0.00     0.089 A 
HETATM    4  C   UNL     1      62.396   9.004   2.036  1.00  0.00    -0.002 A 
HETATM    5  C   UNL     1      61.846  10.271   1.580  1.00  0.00     0.020 A 
HETATM    6  C   UNL     1      61.710  11.279   2.447  1.00  0.00     0.083 A 
HETATM    7  C   UNL     1      62.561   7.910   1.183  1.00  0.00     0.021 A 
HETATM    8  O   UNL     1      61.943  12.106   4.633  1.00  0.00    -0.260 OA
HETATM    9  C   UNL     1      63.319   7.700   3.870  1.00  0.00     0.039 A 
HETATM   10  C   UNL     1      63.107   6.707   1.665  1.00  0.00    -0.061 A 
HETATM   11  C   UNL     1      63.485   6.614   3.012  1.00  0.00     0.009 A 
HETATM   12  C   UNL     1      63.280   5.537   0.741  1.00  0.00     0.048 C 
ENDROOT
TORSDOF 0
ENDMDL
MODEL 4
REMARK VINA RESULT:      -5.0      1.657      2.531
REMARK  0 active torsions:
REMARK  status: ('A' for Active; 'I' for Inactive)
ROOT
HETATM    1  O   UNL     1      64.765   9.491   5.695  1.00  0.00    -0.275 OA
HETATM    2  C   UNL     1      63.514   9.977   5.345  1.00  0.00     0.288 A 
HETATM    3  C   UNL     1      65.294   8.339   5.081  1.00  0.00     0.089 A 
HETATM    4  C   UNL     1      64.578   7.650   4.104  1.00  0.00    -0.002 A 
HETATM    5  C   UNL     1      63.268   8.147   3.713  1.00  0.00     0.020 A 
HETATM    6  C   UNL     1      62.779   9.242   4.301  1.00  0.00     0.083 A 
HETATM    7  C   UNL     1      65.145   6.507   3.532  1.00  0.00     0.021 A 
HETATM    8  O   UNL     1      63.028  10.974   5.868  1.00  0.00    -0.260 OA
HETATM    9  C   UNL     1      66.557   7.924   5.491  1.00  0.00     0.039 A 
HETATM   10  C   UNL     1      66.420   6.069   3.932  1.00  0.00    -0.061 A 
HETATM   11  C   UNL     1      67.118   6.787   4.912  1.00  0.00     0.009 A 
HETATM   12  C   UNL     1      67.021   4.841   3.313  1.00  0.00     0.048 C 
ENDROOT
TORSDOF 0
ENDMDL
MODEL 5
REMARK VINA RESULT:      -4.8      2.613      4.132
REMARK  0 active torsions:
REMARK  status: ('A' for Active; 'I' for Inactive)
ROOT
HETATM    1  O   UNL     1      62.954   6.584   3.404  1.00  0.00    -0.275 OA
HETATM    2  C   UNL     1      63.239   6.211   4.709  1.00  0.00     0.288 A 
HETATM    3  C   UNL     1      62.631   7.917   3.084  1.00  0.00     0.089 A 
HETATM    4  C   UNL     1      62.586   8.904   4.068  1.00  0.00    -0.002 A 
HETATM    5  C   UNL     1      62.891   8.538   5.442  1.00  0.00     0.020 A 
HETATM    6  C   UNL     1      63.198   7.270   5.732  1.00  0.00     0.083 A 
HETATM    7  C   UNL     1      62.252  10.210   3.699  1.00  0.00     0.021 A 
HETATM    8  O   UNL     1      63.516   5.056   5.015  1.00  0.00    -0.260 OA
HETATM    9  C   UNL     1      62.362   8.202   1.750  1.00  0.00     0.039 A 
HETATM   10  C   UNL     1      61.975  10.521   2.355  1.00  0.00    -0.061 A 
HETATM   11  C   UNL     1      62.035   9.508   1.388  1.00  0.00     0.009 A 
HETATM   12  C   UNL     1      61.617  11.926   1.968  1.00  0.00     0.048 C 
ENDROOT
TORSDOF 0
ENDMDL
MODEL 6
REMARK VINA RESULT:      -4.6      4.217      5.914
REMARK  0 active torsions:
REMARK  status: ('A' for Active; 'I' for Inactive)
ROOT
HETATM    1  O   UNL     1      66.096   8.026   6.949  1.00  0.00    -0.275 OA
HETATM    2  C   UNL     1      65.511   8.097   5.693  1.00  0.00     0.288 A 
HETATM    3  C   UNL     1      66.579   6.804   7.457  1.00  0.00     0.089 A 
HETATM    4  C   UNL     1      66.483   5.627   6.716  1.00  0.00    -0.002 A 
HETATM    5  C   UNL     1      65.883   5.679   5.392  1.00  0.00     0.020 A 
HETATM    6  C   UNL     1      65.431   6.846   4.920  1.00  0.00     0.083 A 
HETATM    7  C   UNL     1      66.970   4.440   7.269  1.00  0.00     0.021 A 
HETATM    8  O   UNL     1      65.078   9.147   5.230  1.00  0.00    -0.260 OA
HETATM    9  C   UNL     1      67.152   6.826   8.723  1.00  0.00     0.039 A 
HETATM   10  C   UNL     1      67.553   4.438   8.550  1.00  0.00    -0.061 A 
HETATM   11  C   UNL     1      67.641   5.639   9.268  1.00  0.00     0.009 A 
HETATM   12  C   UNL     1      68.073   3.159   9.137  1.00  0.00     0.048 C 
ENDROOT
TORSDOF 0
ENDMDL
MODEL 7
REMARK VINA RESULT:      -4.4      2.605      3.948
REMARK  0 active torsions:
REMARK  status: ('A' for Active; 'I' for Inactive)
ROOT
HETATM    1  O   UNL     1      64.787   6.787   7.508  1.00  0.00    -0.275 OA
HETATM    2  C   UNL     1      66.153   6.893   7.722  1.00  0.00     0.288 A 
HETATM    3  C   UNL     1      64.195   7.289   6.332  1.00  0.00     0.089 A 
HETATM    4  C   UNL     1      64.962   7.908   5.347  1.00  0.00    -0.002 A 
HETATM    5  C   UNL     1      66.399   8.020   5.544  1.00  0.00     0.020 A 
HETATM    6  C   UNL     1      66.948   7.538   6.663  1.00  0.00     0.083 A 
HETATM    7  C   UNL     1      64.325   8.395   4.202  1.00  0.00     0.021 A 
HETATM    8  O   UNL     1      66.692   6.470   8.739  1.00  0.00    -0.260 OA
HETATM    9  C   UNL     1      62.819   7.138   6.200  1.00  0.00     0.039 A 
HETATM   10  C   UNL     1      62.933   8.255   4.048  1.00  0.00    -0.061 A 
HETATM   11  C   UNL     1      62.190   7.622   5.054  1.00  0.00     0.009 A 
HETATM   12  C   UNL     1      62.257   8.782   2.816  1.00  0.00     0.048 C 
ENDROOT
TORSDOF 0
ENDMDL
MODEL 8
REMARK VINA RESULT:      -4.4      2.535      4.441
REMARK  0 active torsions:
REMARK  status: ('A' for Active; 'I' for Inactive)
ROOT
HETATM    1  O   UNL     1      65.864   5.908   4.453  1.00  0.00    -0.275 OA
HETATM    2  C   UNL     1      66.894   5.936   5.381  1.00  0.00     0.288 A 
HETATM    3  C   UNL     1      64.961   6.982   4.339  1.00  0.00     0.089 A 
HETATM    4  C   UNL     1      65.071   8.107   5.155  1.00  0.00    -0.002 A 
HETATM    5  C   UNL     1      66.150   8.163   6.129  1.00  0.00     0.020 A 
HETATM    6  C   UNL     1      67.002   7.138   6.225  1.00  0.00     0.083 A 
HETATM    7  C   UNL     1      64.144   9.142   5.007  1.00  0.00     0.021 A 
HETATM    8  O   UNL     1      67.691   5.011   5.505  1.00  0.00    -0.260 OA
HETATM    9  C   UNL     1      63.960   6.871   3.379  1.00  0.00     0.039 A 
HETATM   10  C   UNL     1      63.122   9.050   4.044  1.00  0.00    -0.061 A 
HETATM   11  C   UNL     1      63.041   7.909   3.233  1.00  0.00     0.009 A 
HETATM   12  C   UNL     1      62.130  10.166   3.892  1.00  0.00     0.048 C 
ENDROOT
TORSDOF 0
ENDMDL
MODEL 9
REMARK VINA RESULT:      -4.3      2.681      5.003
REMARK  0 active torsions:
REMARK  status: ('A' for Active; 'I' for Inactive)
ROOT
HETATM    1  O   UNL     1      63.137   6.840   2.711  1.00  0.00    -0.275 OA
HETATM    2  C   UNL     1      63.161   6.005   1.605  1.00  0.00     0.288 A 
HETATM    3  C   UNL     1      62.721   8.181   2.599  1.00  0.00     0.089 A 
HETATM    4  C   UNL     1      62.322   8.712   1.374  1.00  0.00    -0.002 A 
HETATM    5  C   UNL     1      62.329   7.851   0.201  1.00  0.00     0.020 A 
HETATM    6  C   UNL     1      62.723   6.580   0.322  1.00  0.00     0.083 A 
HETATM    7  C   UNL     1      61.925  10.051   1.315  1.00  0.00     0.021 A 
HETATM    8  O   UNL     1      63.525   4.835   1.674  1.00  0.00    -0.260 OA
HETATM    9  C   UNL     1      62.725   8.947   3.760  1.00  0.00     0.039 A 
HETATM   10  C   UNL     1      61.924  10.844   2.477  1.00  0.00    -0.061 A 
HETATM   11  C   UNL     1      62.324  10.280   3.696  1.00  0.00     0.009 A 
HETATM   12  C   UNL     1      61.497  12.281   2.405  1.00  0.00     0.048 C 
ENDROOT
TORSDOF 0
ENDMDL
