MODEL 1
REMARK VINA RESULT:      -5.1      0.000      0.000
REMARK  2 active torsions:
REMARK  status: ('A' for Active; 'I' for Inactive)
REMARK    1  A    between atoms: C_1  and  C_3 
REMARK    2  A    between atoms: C_2  and  C_4 
ROOT
HETATM    1  C   UNL     1      62.461   8.992   2.687  1.00  0.00     0.048 A 
HETATM    2  C   UNL     1      63.959   8.273   4.961  1.00  0.00     0.040 A 
HETATM    3  C   UNL     1      63.186   7.791   2.714  1.00  0.00     0.017 A 
HETATM    4  C   UNL     1      62.492   9.829   3.815  1.00  0.00     0.017 A 
HETATM    5  C   UNL     1      63.239   9.474   4.942  1.00  0.00     0.019 A 
HETATM    6  C   UNL     1      63.930   7.433   3.843  1.00  0.00     0.019 A 
ENDROOT
BRANCH   1   7
HETATM    7  C   UNL     1      61.659   9.390   1.470  1.00  0.00     0.417 C 
HETATM    8  F   UNL     1      60.448   8.770   1.390  1.00  0.00    -0.166 F 
HETATM    9  F   UNL     1      62.304   9.099   0.306  1.00  0.00    -0.166 F 
HETATM   10  F   UNL     1      61.397  10.725   1.431  1.00  0.00    -0.166 F 
ENDBRANCH   1   7
BRANCH   2  11
HETATM   11  C   UNL     1      64.729   7.931   6.181  1.00  0.00     0.209 C 
HETATM   12  O   UNL     1      64.386   7.143   7.042  1.00  0.00    -0.644 OA
HETATM   13  O   UNL     1      65.900   8.588   6.260  1.00  0.00    -0.644 OA
ENDBRANCH   2  11
TORSDOF 2
ENDMDL
MODEL 2
REMARK VINA RESULT:      -4.8      3.391      4.342
REMARK  2 active torsions:
REMARK  status: ('A' for Active; 'I' for Inactive)
REMARK    1  A    between atoms: C_1  and  C_3 
REMARK    2  A    between atoms: C_2  and  C_4 
ROOT
HETATM    1  C   UNL     1      62.740   7.294   1.882  1.00  0.00     0.048 A 
HETATM    2  C   UNL     1      62.184   9.965   2.580  1.00  0.00     0.040 A 
HETATM    3  C   UNL     1      62.221   8.187   0.932  1.00  0.00     0.017 A 
HETATM    4  C   UNL     1      62.981   7.755   3.186  1.00  0.00     0.017 A 
HETATM    5  C   UNL     1      62.701   9.080   3.534  1.00  0.00     0.019 A 
HETATM    6  C   UNL     1      61.944   9.514   1.278  1.00  0.00     0.019 A 
ENDROOT
BRANCH   1   7
HETATM    7  C   UNL     1      63.036   5.858   1.518  1.00  0.00     0.417 C 
HETATM    8  F   UNL     1      62.834   5.578   0.200  1.00  0.00    -0.166 F 
HETATM    9  F   UNL     1      62.260   4.977   2.209  1.00  0.00    -0.166 F 
HETATM   10  F   UNL     1      64.325   5.508   1.780  1.00  0.00    -0.166 F 
ENDBRANCH   1   7
BRANCH   2  11
HETATM   11  C   UNL     1      61.911  11.364   2.990  1.00  0.00     0.209 C 
HETATM   12  O   UNL     1      61.853  11.772   4.134  1.00  0.00    -0.644 OA
HETATM   13  O   UNL     1      61.734  12.189   1.943  1.00  0.00    -0.644 OA
ENDBRANCH   2  11
TORSDOF 2
ENDMDL
MODEL 3
REMARK VINA RESULT:      -4.7      3.279      4.167
REMARK  2 active torsions:
REMARK  status: ('A' for Active; 'I' for Inactive)
REMARK    1  A    between atoms: C_1  and  C_3 
REMARK    2  A    between atoms: C_2  and  C_4 
ROOT
HETATM    1  C   UNL     1      64.340   7.123   3.662  1.00  0.00     0.048 A 
HETATM    2  C   UNL     1      63.356   9.534   4.734  1.00  0.00     0.040 A 
HETATM    3  C   UNL     1      63.183   7.718   3.137  1.00  0.00     0.017 A 
HETATM    4  C   UNL     1      65.001   7.751   4.730  1.00  0.00     0.017 A 
HETATM    5  C   UNL     1      64.511   8.946   5.265  1.00  0.00     0.019 A 
HETATM    6  C   UNL     1      62.694   8.916   3.668  1.00  0.00     0.019 A 
ENDROOT
BRANCH   1   7
HETATM    7  C   UNL     1      64.872   5.826   3.098  1.00  0.00     0.417 C 
HETATM    8  F   UNL     1      66.233   5.761   3.076  1.00  0.00    -0.166 F 
HETATM    9  F   UNL     1      64.467   5.613   1.816  1.00  0.00    -0.166 F 
HETATM   10  F   UNL     1      64.458   4.740   3.808  1.00  0.00    -0.166 F 
ENDBRANCH   1   7
BRANCH   2  11
HETATM   11  C   UNL     1      62.877  10.807   5.325  1.00  0.00     0.209 C 
HETATM   12  O   UNL     1      63.183  11.244   6.417  1.00  0.00    -0.644 OA
HETATM   13  O   UNL     1      62.042  11.478   4.512  1.00  0.00    -0.644 OA
ENDBRANCH   2  11
TORSDOF 2
ENDMDL
MODEL 4
REMARK VINA RESULT:      -4.6      1.125      2.210
REMARK  2 active torsions:
REMARK  status: ('A' for Active; 'I' for Inactive)
REMARK    1  A    between atoms: C_1  and  C_3 
REMARK    2  A    between atoms: C_2  and  C_4 
ROOT
HETATM    1  C   UNL     1      62.818   8.255   2.953  1.00  0.00     0.048 A 
HETATM    2  C   UNL     1      64.772   8.051   4.971  1.00  0.00     0.040 A 
HETATM    3  C   UNL     1      62.903   9.223   3.965  1.00  0.00     0.017 A 
HETATM    4  C   UNL     1      63.725   7.183   2.962  1.00  0.00     0.017 A 
HETATM    5  C   UNL     1      64.693   7.080   3.966  1.00  0.00     0.019 A 
HETATM    6  C   UNL     1      63.873   9.123   4.967  1.00  0.00     0.019 A 
ENDROOT
BRANCH   1   7
HETATM    7  C   UNL     1      61.769   8.352   1.870  1.00  0.00     0.417 C 
HETATM    8  F   UNL     1      61.909   9.448   1.074  1.00  0.00    -0.166 F 
HETATM    9  F   UNL     1      60.506   8.417   2.375  1.00  0.00    -0.166 F 
HETATM   10  F   UNL     1      61.783   7.278   1.032  1.00  0.00    -0.166 F 
ENDBRANCH   1   7
BRANCH   2  11
HETATM   11  C   UNL     1      65.820   7.908   6.010  1.00  0.00     0.209 C 
HETATM   12  O   UNL     1      66.369   8.820   6.598  1.00  0.00    -0.644 OA
HETATM   13  O   UNL     1      66.123   6.624   6.271  1.00  0.00    -0.644 OA
ENDBRANCH   2  11
TORSDOF 2
ENDMDL
MODEL 5
REMARK VINA RESULT:      -4.2      4.455      5.474
REMARK  2 active torsions:
REMARK  status: ('A' for Active; 'I' for Inactive)
REMARK    1  A    between atoms: C_1  and  C_3 
REMARK    2  A    between atoms: C_2  and  C_4 
ROOT
HETATM    1  C   UNL     1      64.853   7.963   5.093  1.00  0.00     0.048 A 
HETATM    2  C   UNL     1      62.871   8.481   3.160  1.00  0.00     0.040 A 
HETATM    3  C   UNL     1      64.065   9.121   5.171  1.00  0.00     0.017 A 
HETATM    4  C   UNL     1      64.636   7.064   4.036  1.00  0.00     0.017 A 
HETATM    5  C   UNL     1      63.655   7.323   3.074  1.00  0.00     0.019 A 
HETATM    6  C   UNL     1      63.080   9.379   4.212  1.00  0.00     0.019 A 
ENDROOT
BRANCH   1   7
HETATM    7  C   UNL     1      65.923   7.679   6.122  1.00  0.00     0.417 C 
HETATM    8  F   UNL     1      66.497   8.804   6.633  1.00  0.00    -0.166 F 
HETATM    9  F   UNL     1      66.945   6.936   5.616  1.00  0.00    -0.166 F 
HETATM   10  F   UNL     1      65.447   6.985   7.192  1.00  0.00    -0.166 F 
ENDBRANCH   1   7
BRANCH   2  11
HETATM   11  C   UNL     1      61.835   8.710   2.124  1.00  0.00     0.209 C 
HETATM   12  O   UNL     1      61.965   9.396   1.129  1.00  0.00    -0.644 OA
HETATM   13  O   UNL     1      60.687   8.060   2.382  1.00  0.00    -0.644 OA
ENDBRANCH   2  11
TORSDOF 2
ENDMDL
MODEL 6
REMARK VINA RESULT:      -4.2      1.192      1.913
REMARK  2 active torsions:
REMARK  status: ('A' for Active; 'I' for Inactive)
REMARK    1  A    between atoms: C_1  and  C_3 
REMARK    2  A    between atoms: C_2  and  C_4 
ROOT
HETATM    1  C   UNL     1      62.104   7.965   2.213  1.00  0.00     0.048 A 
HETATM    2  C   UNL     1      63.761   8.325   4.461  1.00  0.00     0.040 A 
HETATM    3  C   UNL     1      63.195   7.112   2.439  1.00  0.00     0.017 A 
HETATM    4  C   UNL     1      61.850   9.000   3.127  1.00  0.00     0.017 A 
HETATM    5  C   UNL     1      62.675   9.181   4.241  1.00  0.00     0.019 A 
HETATM    6  C   UNL     1      64.018   7.290   3.555  1.00  0.00     0.019 A 
ENDROOT
BRANCH   1   7
HETATM    7  C   UNL     1      61.213   7.784   1.006  1.00  0.00     0.417 C 
HETATM    8  F   UNL     1      61.154   8.884   0.204  1.00  0.00    -0.166 F 
HETATM    9  F   UNL     1      59.925   7.504   1.349  1.00  0.00    -0.166 F 
HETATM   10  F   UNL     1      61.620   6.761   0.205  1.00  0.00    -0.166 F 
ENDBRANCH   1   7
BRANCH   2  11
HETATM   11  C   UNL     1      64.604   8.547   5.661  1.00  0.00     0.209 C 
HETATM   12  O   UNL     1      65.201   9.572   5.931  1.00  0.00    -0.644 OA
HETATM   13  O   UNL     1      64.651   7.475   6.471  1.00  0.00    -0.644 OA
ENDBRANCH   2  11
TORSDOF 2
ENDMDL
MODEL 7
REMARK VINA RESULT:      -4.2      1.790      2.292
REMARK  2 active torsions:
REMARK  status: ('A' for Active; 'I' for Inactive)
REMARK    1  A    between atoms: C_1  and  C_3 
REMARK    2  A    between atoms: C_2  and  C_4 
ROOT
HETATM    1  C   UNL     1      61.812   8.567   2.527  1.00  0.00     0.048 A 
HETATM    2  C   UNL     1      62.021   7.166   4.962  1.00  0.00     0.040 A 
HETATM    3  C   UNL     1      60.972   7.476   2.798  1.00  0.00     0.017 A 
HETATM    4  C   UNL     1      62.758   8.950   3.492  1.00  0.00     0.017 A 
HETATM    5  C   UNL     1      62.864   8.252   4.699  1.00  0.00     0.019 A 
HETATM    6  C   UNL     1      61.075   6.780   4.006  1.00  0.00     0.019 A 
ENDROOT
BRANCH   1   7
HETATM    7  C   UNL     1      61.713   9.320   1.222  1.00  0.00     0.417 C 
HETATM    8  F   UNL     1      62.683   8.986   0.326  1.00  0.00    -0.166 F 
HETATM    9  F   UNL     1      61.811  10.668   1.391  1.00  0.00    -0.166 F 
HETATM   10  F   UNL     1      60.528   9.107   0.585  1.00  0.00    -0.166 F 
ENDBRANCH   1   7
BRANCH   2  11
HETATM   11  C   UNL     1      62.161   6.460   6.259  1.00  0.00     0.209 C 
HETATM   12  O   UNL     1      61.279   6.299   7.079  1.00  0.00    -0.644 OA
HETATM   13  O   UNL     1      63.402   5.982   6.461  1.00  0.00    -0.644 OA
ENDBRANCH   2  11
TORSDOF 2
ENDMDL
MODEL 8
REMARK VINA RESULT:      -4.2      4.698      5.621
REMARK  2 active torsions:
REMARK  status: ('A' for Active; 'I' for Inactive)
REMARK    1  A    between atoms: C_1  and  C_3 
REMARK    2  A    between atoms: C_2  and  C_4 
ROOT
HETATM    1  C   UNL     1      64.800   7.328   6.164  1.00  0.00     0.048 A 
HETATM    2  C   UNL     1      62.697   8.466   4.676  1.00  0.00     0.040 A 
HETATM    3  C   UNL     1      65.038   8.414   5.308  1.00  0.00     0.017 A 
HETATM    4  C   UNL     1      63.496   6.818   6.268  1.00  0.00     0.017 A 
HETATM    5  C   UNL     1      62.453   7.381   5.526  1.00  0.00     0.019 A 
HETATM    6  C   UNL     1      63.994   8.980   4.569  1.00  0.00     0.019 A 
ENDROOT
BRANCH   1   7
HETATM    7  C   UNL     1      65.923   6.706   6.961  1.00  0.00     0.417 C 
HETATM    8  F   UNL     1      65.497   5.801   7.886  1.00  0.00    -0.166 F 
HETATM    9  F   UNL     1      66.645   7.632   7.651  1.00  0.00    -0.166 F 
HETATM   10  F   UNL     1      66.816   6.043   6.175  1.00  0.00    -0.166 F 
ENDBRANCH   1   7
BRANCH   2  11
HETATM   11  C   UNL     1      61.560   9.038   3.916  1.00  0.00     0.209 C 
HETATM   12  O   UNL     1      60.726   8.403   3.299  1.00  0.00    -0.644 OA
HETATM   13  O   UNL     1      61.516  10.381   3.974  1.00  0.00    -0.644 OA
ENDBRANCH   2  11
TORSDOF 2
ENDMDL
MODEL 9
REMARK VINA RESULT:      -3.9      2.560      3.309
REMARK  2 active torsions:
REMARK  status: ('A' for Active; 'I' for Inactive)
REMARK    1  A    between atoms: C_1  and  C_3 
REMARK    2  A    between atoms: C_2  and  C_4 
ROOT
HETATM    1  C   UNL     1      62.157   7.055   5.051  1.00  0.00     0.048 A 
HETATM    2  C   UNL     1      64.793   7.886   5.589  1.00  0.00     0.040 A 
HETATM    3  C   UNL     1      62.911   6.431   6.056  1.00  0.00     0.017 A 
HETATM    4  C   UNL     1      62.737   8.103   4.318  1.00  0.00     0.017 A 
HETATM    5  C   UNL     1      64.048   8.513   4.583  1.00  0.00     0.019 A 
HETATM    6  C   UNL     1      64.220   6.844   6.324  1.00  0.00     0.019 A 
ENDROOT
BRANCH   1   7
HETATM    7  C   UNL     1      60.744   6.612   4.750  1.00  0.00     0.417 C 
HETATM    8  F   UNL     1      60.033   6.272   5.862  1.00  0.00    -0.166 F 
HETATM    9  F   UNL     1      60.704   5.522   3.935  1.00  0.00    -0.166 F 
HETATM   10  F   UNL     1      60.017   7.577   4.123  1.00  0.00    -0.166 F 
ENDBRANCH   1   7
BRANCH   2  11
HETATM   11  C   UNL     1      66.175   8.360   5.843  1.00  0.00     0.209 C 
HETATM   12  O   UNL     1      66.576   8.866   6.873  1.00  0.00    -0.644 OA
HETATM   13  O   UNL     1      66.994   8.168   4.793  1.00  0.00    -0.644 OA
ENDBRANCH   2  11
TORSDOF 2
ENDMDL
