MODEL 1
REMARK VINA RESULT:      -4.2      0.000      0.000
REMARK  1 active torsions:
REMARK  status: ('A' for Active; 'I' for Inactive)
REMARK    1  A    between atoms: C_1  and  N_7 
ROOT
HETATM    1  C   UNL     1      62.829  10.754   5.348  1.00  0.00     0.029 A 
HETATM    2  C   UNL     1      62.938   8.826   3.880  1.00  0.00     0.037 A 
HETATM    3  C   UNL     1      62.031  10.887   3.060  1.00  0.00     0.037 A 
HETATM    4  C   UNL     1      62.287  11.494   4.292  1.00  0.00     0.052 A 
HETATM    5  C   UNL     1      63.197   9.426   5.115  1.00  0.00     0.052 A 
HETATM    6  C   UNL     1      62.349   9.549   2.848  1.00  0.00     0.048 A 
HETATM    7 CL   UNL     1      61.334  11.809   1.785  1.00  0.00    -0.084 Cl
HETATM    8 CL   UNL     1      63.371   7.179   3.627  1.00  0.00    -0.084 Cl
ENDROOT
BRANCH   1   9
HETATM    9  N   UNL     1      63.215  11.394   6.530  1.00  0.00    -0.399 N 
HETATM   10  H   UNL     1      63.056  10.961   7.399  1.00  0.00     0.156 HD
HETATM   11  H   UNL     1      63.645  12.279   6.492  1.00  0.00     0.156 HD
ENDBRANCH   1   9
TORSDOF 1
ENDMDL
MODEL 2
REMARK VINA RESULT:      -4.1      1.474      1.694
REMARK  1 active torsions:
REMARK  status: ('A' for Active; 'I' for Inactive)
REMARK    1  A    between atoms: C_1  and  N_7 
ROOT
HETATM    1  C   UNL     1      62.576   9.390   4.355  1.00  0.00     0.029 A 
HETATM    2  C   UNL     1      62.494   8.444   2.123  1.00  0.00     0.037 A 
HETATM    3  C   UNL     1      61.952  10.755   2.449  1.00  0.00     0.037 A 
HETATM    4  C   UNL     1      62.215  10.628   3.815  1.00  0.00     0.052 A 
HETATM    5  C   UNL     1      62.759   8.309   3.488  1.00  0.00     0.052 A 
HETATM    6  C   UNL     1      62.084   9.664   1.596  1.00  0.00     0.048 A 
HETATM    7 CL   UNL     1      61.479  12.282   1.811  1.00  0.00    -0.084 Cl
HETATM    8 CL   UNL     1      62.696   7.090   1.080  1.00  0.00    -0.084 Cl
ENDROOT
BRANCH   1   9
HETATM    9  N   UNL     1      62.976   9.295   5.692  1.00  0.00    -0.399 N 
HETATM   10  H   UNL     1      62.379   9.611   6.408  1.00  0.00     0.156 HD
HETATM   11  H   UNL     1      63.855   8.914   5.917  1.00  0.00     0.156 HD
ENDBRANCH   1   9
TORSDOF 1
ENDMDL
MODEL 3
REMARK VINA RESULT:      -3.9      1.483      3.274
REMARK  1 active torsions:
REMARK  status: ('A' for Active; 'I' for Inactive)
REMARK    1  A    between atoms: C_1  and  N_7 
ROOT
HETATM    1  C   UNL     1      62.765   9.201   4.416  1.00  0.00     0.029 A 
HETATM    2  C   UNL     1      62.042  10.589   2.563  1.00  0.00     0.037 A 
HETATM    3  C   UNL     1      62.501   8.266   2.193  1.00  0.00     0.037 A 
HETATM    4  C   UNL     1      62.798   8.105   3.549  1.00  0.00     0.052 A 
HETATM    5  C   UNL     1      62.337  10.436   3.919  1.00  0.00     0.052 A 
HETATM    6  C   UNL     1      62.128   9.508   1.691  1.00  0.00     0.048 A 
HETATM    7 CL   UNL     1      62.580   6.909   1.137  1.00  0.00    -0.084 Cl
HETATM    8 CL   UNL     1      61.549  12.126   1.967  1.00  0.00    -0.084 Cl
ENDROOT
BRANCH   1   9
HETATM    9  N   UNL     1      62.922   9.013   5.793  1.00  0.00    -0.399 N 
HETATM   10  H   UNL     1      63.816   9.082   6.200  1.00  0.00     0.156 HD
HETATM   11  H   UNL     1      62.139   8.812   6.355  1.00  0.00     0.156 HD
ENDBRANCH   1   9
TORSDOF 1
ENDMDL
MODEL 4
REMARK VINA RESULT:      -3.9      1.273      3.155
REMARK  1 active torsions:
REMARK  status: ('A' for Active; 'I' for Inactive)
REMARK    1  A    between atoms: C_1  and  N_7 
ROOT
HETATM    1  C   UNL     1      63.157  10.262   4.968  1.00  0.00     0.029 A 
HETATM    2  C   UNL     1      62.287   9.279   2.928  1.00  0.00     0.037 A 
HETATM    3  C   UNL     1      63.920   8.086   4.214  1.00  0.00     0.037 A 
HETATM    4  C   UNL     1      63.935   9.115   5.158  1.00  0.00     0.052 A 
HETATM    5  C   UNL     1      62.297  10.313   3.867  1.00  0.00     0.052 A 
HETATM    6  C   UNL     1      63.102   8.163   3.091  1.00  0.00     0.048 A 
HETATM    7 CL   UNL     1      64.909   6.697   4.452  1.00  0.00    -0.084 Cl
HETATM    8 CL   UNL     1      61.243   9.379   1.564  1.00  0.00    -0.084 Cl
ENDROOT
BRANCH   1   9
HETATM    9  N   UNL     1      63.065  11.224   5.978  1.00  0.00    -0.399 N 
HETATM   10  H   UNL     1      62.724  12.125   5.772  1.00  0.00     0.156 HD
HETATM   11  H   UNL     1      63.341  11.001   6.896  1.00  0.00     0.156 HD
ENDBRANCH   1   9
TORSDOF 1
ENDMDL
MODEL 5
REMARK VINA RESULT:      -3.9      2.638      3.179
REMARK  1 active torsions:
REMARK  status: ('A' for Active; 'I' for Inactive)
REMARK    1  A    between atoms: C_1  and  N_7 
ROOT
HETATM    1  C   UNL     1      61.861  10.512   2.366  1.00  0.00     0.029 A 
HETATM    2  C   UNL     1      62.671   8.819   3.902  1.00  0.00     0.037 A 
HETATM    3  C   UNL     1      62.449   8.296   1.574  1.00  0.00     0.037 A 
HETATM    4  C   UNL     1      62.015   9.599   1.318  1.00  0.00     0.052 A 
HETATM    5  C   UNL     1      62.238  10.124   3.654  1.00  0.00     0.052 A 
HETATM    6  C   UNL     1      62.773   7.896   2.866  1.00  0.00     0.048 A 
HETATM    7 CL   UNL     1      62.602   7.179   0.273  1.00  0.00    -0.084 Cl
HETATM    8 CL   UNL     1      63.100   8.354   5.502  1.00  0.00    -0.084 Cl
ENDROOT
BRANCH   1   9
HETATM    9  N   UNL     1      61.565  11.852   2.093  1.00  0.00    -0.399 N 
HETATM   10  H   UNL     1      62.060  12.569   2.551  1.00  0.00     0.156 HD
HETATM   11  H   UNL     1      60.860  12.077   1.444  1.00  0.00     0.156 HD
ENDBRANCH   1   9
TORSDOF 1
ENDMDL
MODEL 6
REMARK VINA RESULT:      -3.8      2.768      4.428
REMARK  1 active torsions:
REMARK  status: ('A' for Active; 'I' for Inactive)
REMARK    1  A    between atoms: C_1  and  N_7 
ROOT
HETATM    1  C   UNL     1      62.347   8.139   1.619  1.00  0.00     0.029 A 
HETATM    2  C   UNL     1      61.985  10.435   2.312  1.00  0.00     0.037 A 
HETATM    3  C   UNL     1      62.537   8.777   3.952  1.00  0.00     0.037 A 
HETATM    4  C   UNL     1      62.626   7.809   2.949  1.00  0.00     0.052 A 
HETATM    5  C   UNL     1      62.072   9.472   1.303  1.00  0.00     0.052 A 
HETATM    6  C   UNL     1      62.210  10.093   3.641  1.00  0.00     0.048 A 
HETATM    7 CL   UNL     1      62.853   8.341   5.587  1.00  0.00    -0.084 Cl
HETATM    8 CL   UNL     1      61.614  12.065   1.902  1.00  0.00    -0.084 Cl
ENDROOT
BRANCH   1   9
HETATM    9  N   UNL     1      62.574   7.207   0.601  1.00  0.00    -0.399 N 
HETATM   10  H   UNL     1      63.393   6.661   0.606  1.00  0.00     0.156 HD
HETATM   11  H   UNL     1      61.914   7.098  -0.122  1.00  0.00     0.156 HD
ENDBRANCH   1   9
TORSDOF 1
ENDMDL
MODEL 7
REMARK VINA RESULT:      -3.7      2.746      3.340
REMARK  1 active torsions:
REMARK  status: ('A' for Active; 'I' for Inactive)
REMARK    1  A    between atoms: C_1  and  N_7 
ROOT
HETATM    1  C   UNL     1      62.257   8.220   1.675  1.00  0.00     0.029 A 
HETATM    2  C   UNL     1      62.545   8.864   3.996  1.00  0.00     0.037 A 
HETATM    3  C   UNL     1      61.979  10.528   2.368  1.00  0.00     0.037 A 
HETATM    4  C   UNL     1      61.944   9.549   1.373  1.00  0.00     0.052 A 
HETATM    5  C   UNL     1      62.512   7.879   3.006  1.00  0.00     0.052 A 
HETATM    6  C   UNL     1      62.285  10.194   3.683  1.00  0.00     0.048 A 
HETATM    7 CL   UNL     1      61.619  12.163   1.967  1.00  0.00    -0.084 Cl
HETATM    8 CL   UNL     1      62.893   8.424   5.623  1.00  0.00    -0.084 Cl
ENDROOT
BRANCH   1   9
HETATM    9  N   UNL     1      62.085   7.220   0.713  1.00  0.00    -0.399 N 
HETATM   10  H   UNL     1      61.185   7.018   0.369  1.00  0.00     0.156 HD
HETATM   11  H   UNL     1      62.863   6.718   0.381  1.00  0.00     0.156 HD
ENDBRANCH   1   9
TORSDOF 1
ENDMDL
MODEL 8
REMARK VINA RESULT:      -3.6      2.615      3.264
REMARK  1 active torsions:
REMARK  status: ('A' for Active; 'I' for Inactive)
REMARK    1  A    between atoms: C_1  and  N_7 
ROOT
HETATM    1  C   UNL     1      63.848   7.827   4.036  1.00  0.00     0.029 A 
HETATM    2  C   UNL     1      62.280   8.970   2.582  1.00  0.00     0.037 A 
HETATM    3  C   UNL     1      62.924   9.983   4.655  1.00  0.00     0.037 A 
HETATM    4  C   UNL     1      63.775   8.908   4.921  1.00  0.00     0.052 A 
HETATM    5  C   UNL     1      63.128   7.891   2.841  1.00  0.00     0.052 A 
HETATM    6  C   UNL     1      62.167  10.019   3.488  1.00  0.00     0.048 A 
HETATM    7 CL   UNL     1      62.826  11.288   5.774  1.00  0.00    -0.084 Cl
HETATM    8 CL   UNL     1      61.378   9.011   1.116  1.00  0.00    -0.084 Cl
ENDROOT
BRANCH   1   9
HETATM    9  N   UNL     1      64.802   6.822   4.232  1.00  0.00    -0.399 N 
HETATM   10  H   UNL     1      64.863   6.072   3.597  1.00  0.00     0.156 HD
HETATM   11  H   UNL     1      65.410   6.866   5.004  1.00  0.00     0.156 HD
ENDBRANCH   1   9
TORSDOF 1
ENDMDL
MODEL 9
REMARK VINA RESULT:      -3.6      2.730      3.518
REMARK  1 active torsions:
REMARK  status: ('A' for Active; 'I' for Inactive)
REMARK    1  A    between atoms: C_1  and  N_7 
ROOT
HETATM    1  C   UNL     1      62.011  10.185   2.384  1.00  0.00     0.029 A 
HETATM    2  C   UNL     1      62.501   7.929   1.640  1.00  0.00     0.037 A 
HETATM    3  C   UNL     1      62.816   8.510   3.943  1.00  0.00     0.037 A 
HETATM    4  C   UNL     1      62.358   9.804   3.684  1.00  0.00     0.052 A 
HETATM    5  C   UNL     1      62.042   9.221   1.373  1.00  0.00     0.052 A 
HETATM    6  C   UNL     1      62.896   7.568   2.923  1.00  0.00     0.048 A 
HETATM    7 CL   UNL     1      63.268   8.072   5.546  1.00  0.00    -0.084 Cl
HETATM    8 CL   UNL     1      62.560   6.768   0.371  1.00  0.00    -0.084 Cl
ENDROOT
BRANCH   1   9
HETATM    9  N   UNL     1      61.420  11.432   2.151  1.00  0.00    -0.399 N 
HETATM   10  H   UNL     1      60.690  11.516   1.496  1.00  0.00     0.156 HD
HETATM   11  H   UNL     1      61.735  12.225   2.641  1.00  0.00     0.156 HD
ENDBRANCH   1   9
TORSDOF 1
ENDMDL
