MODEL 1
REMARK VINA RESULT:      -4.3      0.000      0.000
REMARK  1 active torsions:
REMARK  status: ('A' for Active; 'I' for Inactive)
REMARK    1  A    between atoms: C_2  and  O_8 
ROOT
HETATM    1  C   UNL     1      62.370   8.962   2.093  1.00  0.00     0.116 A 
HETATM    2  C   UNL     1      62.075  11.165   3.738  1.00  0.00     0.065 A 
HETATM    3  F   UNL     1      62.509   7.895   1.296  1.00  0.00    -0.206 F 
HETATM    4  C   UNL     1      62.668   8.848   3.446  1.00  0.00     0.045 A 
HETATM    5  C   UNL     1      61.930  10.167   1.553  1.00  0.00     0.045 A 
HETATM    6  C   UNL     1      62.518   9.959   4.277  1.00  0.00     0.039 A 
HETATM    7  C   UNL     1      61.780  11.281   2.381  1.00  0.00     0.039 A 
ENDROOT
BRANCH   2   8
HETATM    8  O   UNL     1      61.937  12.222   4.587  1.00  0.00    -0.361 OA
HETATM    9  H   UNL     1      62.459  12.991   4.466  1.00  0.00     0.217 HD
ENDBRANCH   2   8
TORSDOF 1
ENDMDL
MODEL 2
REMARK VINA RESULT:      -4.2      0.160      1.719
REMARK  1 active torsions:
REMARK  status: ('A' for Active; 'I' for Inactive)
REMARK    1  A    between atoms: C_2  and  O_8 
ROOT
HETATM    1  C   UNL     1      62.237   9.042   1.983  1.00  0.00     0.116 A 
HETATM    2  C   UNL     1      62.051  11.155   3.756  1.00  0.00     0.065 A 
HETATM    3  F   UNL     1      62.332   8.018   1.125  1.00  0.00    -0.206 F 
HETATM    4  C   UNL     1      61.882  10.300   1.510  1.00  0.00     0.045 A 
HETATM    5  C   UNL     1      62.496   8.829   3.334  1.00  0.00     0.045 A 
HETATM    6  C   UNL     1      61.789  11.367   2.404  1.00  0.00     0.039 A 
HETATM    7  C   UNL     1      62.402   9.893   4.231  1.00  0.00     0.039 A 
ENDROOT
BRANCH   2   8
HETATM    8  O   UNL     1      61.954  12.227   4.592  1.00  0.00    -0.361 OA
HETATM    9  H   UNL     1      61.353  12.920   4.398  1.00  0.00     0.217 HD
ENDBRANCH   2   8
TORSDOF 1
ENDMDL
MODEL 3
REMARK VINA RESULT:      -4.2      2.288      2.849
REMARK  1 active torsions:
REMARK  status: ('A' for Active; 'I' for Inactive)
REMARK    1  A    between atoms: C_2  and  O_8 
ROOT
HETATM    1  C   UNL     1      61.818  11.315   2.260  1.00  0.00     0.116 A 
HETATM    2  C   UNL     1      62.451   8.983   3.603  1.00  0.00     0.065 A 
HETATM    3  F   UNL     1      61.515  12.445   1.608  1.00  0.00    -0.206 F 
HETATM    4  C   UNL     1      61.970  11.343   3.642  1.00  0.00     0.045 A 
HETATM    5  C   UNL     1      61.974  10.132   1.544  1.00  0.00     0.045 A 
HETATM    6  C   UNL     1      62.290  10.167   4.320  1.00  0.00     0.039 A 
HETATM    7  C   UNL     1      62.294   8.953   2.219  1.00  0.00     0.039 A 
ENDROOT
BRANCH   2   8
HETATM    8  O   UNL     1      62.770   7.859   4.306  1.00  0.00    -0.361 OA
HETATM    9  H   UNL     1      62.617   7.825   5.230  1.00  0.00     0.217 HD
ENDBRANCH   2   8
TORSDOF 1
ENDMDL
MODEL 4
REMARK VINA RESULT:      -4.0      1.355      1.620
REMARK  1 active torsions:
REMARK  status: ('A' for Active; 'I' for Inactive)
REMARK    1  A    between atoms: C_2  and  O_8 
ROOT
HETATM    1  C   UNL     1      62.316   9.429   2.945  1.00  0.00     0.116 A 
HETATM    2  C   UNL     1      63.024  10.760   5.263  1.00  0.00     0.065 A 
HETATM    3  F   UNL     1      61.970   8.785   1.823  1.00  0.00    -0.206 F 
HETATM    4  C   UNL     1      63.137   8.796   3.872  1.00  0.00     0.045 A 
HETATM    5  C   UNL     1      61.849  10.723   3.164  1.00  0.00     0.045 A 
HETATM    6  C   UNL     1      63.494   9.467   5.042  1.00  0.00     0.039 A 
HETATM    7  C   UNL     1      62.205  11.396   4.333  1.00  0.00     0.039 A 
ENDROOT
BRANCH   2   8
HETATM    8  O   UNL     1      63.392  11.374   6.423  1.00  0.00    -0.361 OA
HETATM    9  H   UNL     1      62.736  11.684   7.017  1.00  0.00     0.217 HD
ENDBRANCH   2   8
TORSDOF 1
ENDMDL
MODEL 5
REMARK VINA RESULT:      -3.9      2.736      3.648
REMARK  1 active torsions:
REMARK  status: ('A' for Active; 'I' for Inactive)
REMARK    1  A    between atoms: C_2  and  O_8 
ROOT
HETATM    1  C   UNL     1      62.097  11.219   3.834  1.00  0.00     0.116 A 
HETATM    2  C   UNL     1      62.335   8.947   2.276  1.00  0.00     0.065 A 
HETATM    3  F   UNL     1      61.978  12.317   4.591  1.00  0.00    -0.206 F 
HETATM    4  C   UNL     1      61.799  11.287   2.478  1.00  0.00     0.045 A 
HETATM    5  C   UNL     1      62.517  10.027   4.418  1.00  0.00     0.045 A 
HETATM    6  C   UNL     1      61.918  10.141   1.691  1.00  0.00     0.039 A 
HETATM    7  C   UNL     1      62.638   8.879   3.634  1.00  0.00     0.039 A 
ENDROOT
BRANCH   2   8
HETATM    8  O   UNL     1      62.431   7.852   1.471  1.00  0.00    -0.361 OA
HETATM    9  H   UNL     1      61.835   7.741   0.756  1.00  0.00     0.217 HD
ENDBRANCH   2   8
TORSDOF 1
ENDMDL
MODEL 6
REMARK VINA RESULT:      -3.8      2.045      2.752
REMARK  1 active torsions:
REMARK  status: ('A' for Active; 'I' for Inactive)
REMARK    1  A    between atoms: C_2  and  O_8 
ROOT
HETATM    1  C   UNL     1      63.554   8.934   4.849  1.00  0.00     0.116 A 
HETATM    2  C   UNL     1      61.977  10.638   3.348  1.00  0.00     0.065 A 
HETATM    3  F   UNL     1      64.322   8.111   5.575  1.00  0.00    -0.206 F 
HETATM    4  C   UNL     1      63.107   8.525   3.597  1.00  0.00     0.045 A 
HETATM    5  C   UNL     1      63.216  10.184   5.359  1.00  0.00     0.045 A 
HETATM    6  C   UNL     1      62.312   9.385   2.839  1.00  0.00     0.039 A 
HETATM    7  C   UNL     1      62.421  11.046   4.604  1.00  0.00     0.039 A 
ENDROOT
BRANCH   2   8
HETATM    8  O   UNL     1      61.204  11.448   2.571  1.00  0.00    -0.361 OA
HETATM    9  H   UNL     1      61.097  11.259   1.658  1.00  0.00     0.217 HD
ENDBRANCH   2   8
TORSDOF 1
ENDMDL
MODEL 7
REMARK VINA RESULT:      -3.3     12.985     13.739
REMARK  1 active torsions:
REMARK  status: ('A' for Active; 'I' for Inactive)
REMARK    1  A    between atoms: C_2  and  O_8 
ROOT
HETATM    1  C   UNL     1      58.257   1.529  14.051  1.00  0.00     0.116 A 
HETATM    2  C   UNL     1      57.441   2.686  11.675  1.00  0.00     0.065 A 
HETATM    3  F   UNL     1      58.653   0.966  15.199  1.00  0.00    -0.206 F 
HETATM    4  C   UNL     1      56.910   1.819  13.860  1.00  0.00     0.045 A 
HETATM    5  C   UNL     1      59.200   1.816  13.067  1.00  0.00     0.045 A 
HETATM    6  C   UNL     1      56.499   2.402  12.661  1.00  0.00     0.039 A 
HETATM    7  C   UNL     1      58.791   2.399  11.868  1.00  0.00     0.039 A 
ENDROOT
BRANCH   2   8
HETATM    8  O   UNL     1      56.993   3.249  10.518  1.00  0.00    -0.361 OA
HETATM    9  H   UNL     1      56.995   4.181  10.419  1.00  0.00     0.217 HD
ENDBRANCH   2   8
TORSDOF 1
ENDMDL
MODEL 8
REMARK VINA RESULT:      -3.2      6.840      7.298
REMARK  1 active torsions:
REMARK  status: ('A' for Active; 'I' for Inactive)
REMARK    1  A    between atoms: C_2  and  O_8 
ROOT
HETATM    1  C   UNL     1      57.199   6.898   5.847  1.00  0.00     0.116 A 
HETATM    2  C   UNL     1      58.129   6.655   8.440  1.00  0.00     0.065 A 
HETATM    3  F   UNL     1      56.745   7.014   4.593  1.00  0.00    -0.206 F 
HETATM    4  C   UNL     1      58.318   6.113   6.100  1.00  0.00     0.045 A 
HETATM    5  C   UNL     1      56.543   7.567   6.877  1.00  0.00     0.045 A 
HETATM    6  C   UNL     1      58.787   5.989   7.408  1.00  0.00     0.039 A 
HETATM    7  C   UNL     1      57.010   7.446   8.186  1.00  0.00     0.039 A 
ENDROOT
BRANCH   2   8
HETATM    8  O   UNL     1      58.618   6.501   9.703  1.00  0.00    -0.361 OA
HETATM    9  H   UNL     1      58.845   7.254  10.212  1.00  0.00     0.217 HD
ENDBRANCH   2   8
TORSDOF 1
ENDMDL
MODEL 9
REMARK VINA RESULT:      -3.2     14.104     14.867
REMARK  1 active torsions:
REMARK  status: ('A' for Active; 'I' for Inactive)
REMARK    1  A    between atoms: C_2  and  O_8 
ROOT
HETATM    1  C   UNL     1      60.001   0.363  12.947  1.00  0.00     0.116 A 
HETATM    2  C   UNL     1      57.519   0.571  14.149  1.00  0.00     0.065 A 
HETATM    3  F   UNL     1      61.201   0.265  12.361  1.00  0.00    -0.206 F 
HETATM    4  C   UNL     1      59.229  -0.780  13.121  1.00  0.00     0.045 A 
HETATM    5  C   UNL     1      59.546   1.609  13.372  1.00  0.00     0.045 A 
HETATM    6  C   UNL     1      57.976  -0.675  13.727  1.00  0.00     0.039 A 
HETATM    7  C   UNL     1      58.295   1.717  13.979  1.00  0.00     0.039 A 
ENDROOT
BRANCH   2   8
HETATM    8  O   UNL     1      56.288   0.628  14.730  1.00  0.00    -0.361 OA
HETATM    9  H   UNL     1      56.080   0.056  15.444  1.00  0.00     0.217 HD
ENDBRANCH   2   8
TORSDOF 1
ENDMDL
