MODEL 1
REMARK VINA RESULT:      -4.6      0.000      0.000
REMARK  1 active torsions:
REMARK  status: ('A' for Active; 'I' for Inactive)
REMARK    1  A    between atoms: C_8  and  N_9 
ROOT
HETATM    1  C   UNL     1      62.288  10.517   3.806  1.00  0.00     0.107 A 
HETATM    2  C   UNL     1      62.611   9.988   5.039  1.00  0.00     0.068 A 
HETATM    3  C   UNL     1      62.276   9.749   2.668  1.00  0.00     0.105 A 
HETATM    4  O   UNL     1      61.961  11.815   3.559  1.00  0.00    -0.323 OA
HETATM    5  O   UNL     1      61.937  10.463   1.562  1.00  0.00    -0.323 OA
HETATM    6  C   UNL     1      61.688  11.759   2.144  1.00  0.00     0.352 A 
HETATM    7  C   UNL     1      62.599   8.411   2.697  1.00  0.00     0.042 A 
HETATM    8  C   UNL     1      62.883   8.618   5.122  1.00  0.00     0.028 A 
HETATM    9  C   UNL     1      62.924   7.851   3.938  1.00  0.00     0.032 A 
ENDROOT
BRANCH   8  10
HETATM   10  N   UNL     1      63.332   8.062   6.327  1.00  0.00    -0.399 N 
HETATM   11  H   UNL     1      64.019   8.526   6.857  1.00  0.00     0.156 HD
HETATM   12  H   UNL     1      62.960   7.207   6.644  1.00  0.00     0.156 HD
ENDBRANCH   8  10
TORSDOF 1
ENDMDL
MODEL 2
REMARK VINA RESULT:      -4.5      2.040      2.997
REMARK  1 active torsions:
REMARK  status: ('A' for Active; 'I' for Inactive)
REMARK    1  A    between atoms: C_8  and  N_9 
ROOT
HETATM    1  C   UNL     1      62.855   9.631   4.290  1.00  0.00     0.107 A 
HETATM    2  C   UNL     1      63.046   8.455   3.593  1.00  0.00     0.068 A 
HETATM    3  C   UNL     1      62.225  10.713   3.726  1.00  0.00     0.105 A 
HETATM    4  O   UNL     1      63.256   9.872   5.568  1.00  0.00    -0.323 OA
HETATM    5  O   UNL     1      62.145  11.770   4.577  1.00  0.00    -0.323 OA
HETATM    6  C   UNL     1      62.754  11.211   5.759  1.00  0.00     0.352 A 
HETATM    7  C   UNL     1      61.761  10.683   2.430  1.00  0.00     0.042 A 
HETATM    8  C   UNL     1      62.531   8.361   2.295  1.00  0.00     0.028 A 
HETATM    9  C   UNL     1      61.937   9.497   1.707  1.00  0.00     0.032 A 
ENDROOT
BRANCH   8  10
HETATM   10  N   UNL     1      62.805   7.233   1.511  1.00  0.00    -0.399 N 
HETATM   11  H   UNL     1      62.177   6.476   1.502  1.00  0.00     0.156 HD
HETATM   12  H   UNL     1      63.626   7.199   0.968  1.00  0.00     0.156 HD
ENDBRANCH   8  10
TORSDOF 1
ENDMDL
MODEL 3
REMARK VINA RESULT:      -4.5      2.287      3.114
REMARK  1 active torsions:
REMARK  status: ('A' for Active; 'I' for Inactive)
REMARK    1  A    between atoms: C_8  and  N_9 
ROOT
HETATM    1  C   UNL     1      62.304  10.510   3.812  1.00  0.00     0.107 A 
HETATM    2  C   UNL     1      61.867  10.299   2.521  1.00  0.00     0.068 A 
HETATM    3  C   UNL     1      63.005   9.553   4.506  1.00  0.00     0.105 A 
HETATM    4  O   UNL     1      62.102  11.637   4.547  1.00  0.00    -0.323 OA
HETATM    5  O   UNL     1      63.335   9.957   5.761  1.00  0.00    -0.323 OA
HETATM    6  C   UNL     1      62.805  11.298   5.760  1.00  0.00     0.352 A 
HETATM    7  C   UNL     1      63.296   8.328   3.949  1.00  0.00     0.042 A 
HETATM    8  C   UNL     1      62.200   9.092   1.896  1.00  0.00     0.028 A 
HETATM    9  C   UNL     1      62.869   8.095   2.636  1.00  0.00     0.032 A 
ENDROOT
BRANCH   8  10
HETATM   10  N   UNL     1      61.677   8.787   0.632  1.00  0.00    -0.399 N 
HETATM   11  H   UNL     1      62.242   8.874  -0.168  1.00  0.00     0.156 HD
HETATM   12  H   UNL     1      60.743   8.487   0.545  1.00  0.00     0.156 HD
ENDBRANCH   8  10
TORSDOF 1
ENDMDL
MODEL 4
REMARK VINA RESULT:      -4.4      1.530      2.143
REMARK  1 active torsions:
REMARK  status: ('A' for Active; 'I' for Inactive)
REMARK    1  A    between atoms: C_8  and  N_9 
ROOT
HETATM    1  C   UNL     1      62.146   9.975   2.937  1.00  0.00     0.107 A 
HETATM    2  C   UNL     1      62.250  10.849   4.000  1.00  0.00     0.068 A 
HETATM    3  C   UNL     1      62.757   8.744   2.948  1.00  0.00     0.105 A 
HETATM    4  O   UNL     1      61.464  10.204   1.782  1.00  0.00    -0.323 OA
HETATM    5  O   UNL     1      62.534   8.042   1.806  1.00  0.00    -0.323 OA
HETATM    6  C   UNL     1      61.671   8.953   1.094  1.00  0.00     0.352 A 
HETATM    7  C   UNL     1      63.516   8.326   4.018  1.00  0.00     0.042 A 
HETATM    8  C   UNL     1      62.959  10.435   5.133  1.00  0.00     0.028 A 
HETATM    9  C   UNL     1      63.630   9.194   5.110  1.00  0.00     0.032 A 
ENDROOT
BRANCH   8  10
HETATM   10  N   UNL     1      63.192  11.333   6.183  1.00  0.00    -0.399 N 
HETATM   11  H   UNL     1      63.507  12.245   5.991  1.00  0.00     0.156 HD
HETATM   12  H   UNL     1      63.040  11.051   7.114  1.00  0.00     0.156 HD
ENDBRANCH   8  10
TORSDOF 1
ENDMDL
MODEL 5
REMARK VINA RESULT:      -4.3      2.864      4.063
REMARK  1 active torsions:
REMARK  status: ('A' for Active; 'I' for Inactive)
REMARK    1  A    between atoms: C_8  and  N_9 
ROOT
HETATM    1  C   UNL     1      63.851   8.420   4.114  1.00  0.00     0.107 A 
HETATM    2  C   UNL     1      62.883   8.347   3.134  1.00  0.00     0.068 A 
HETATM    3  C   UNL     1      63.881   9.444   5.029  1.00  0.00     0.105 A 
HETATM    4  O   UNL     1      64.869   7.535   4.295  1.00  0.00    -0.323 OA
HETATM    5  O   UNL     1      64.916   9.333   5.903  1.00  0.00    -0.323 OA
HETATM    6  C   UNL     1      65.506   8.092   5.463  1.00  0.00     0.352 A 
HETATM    7  C   UNL     1      62.950  10.459   5.006  1.00  0.00     0.042 A 
HETATM    8  C   UNL     1      61.880   9.323   3.117  1.00  0.00     0.028 A 
HETATM    9  C   UNL     1      61.953  10.401   4.025  1.00  0.00     0.032 A 
ENDROOT
BRANCH   8  10
HETATM   10  N   UNL     1      60.949   9.356   2.070  1.00  0.00    -0.399 N 
HETATM   11  H   UNL     1      60.200   9.994   2.098  1.00  0.00     0.156 HD
HETATM   12  H   UNL     1      61.044   8.741   1.308  1.00  0.00     0.156 HD
ENDBRANCH   8  10
TORSDOF 1
ENDMDL
MODEL 6
REMARK VINA RESULT:      -4.2      2.090      3.074
REMARK  1 active torsions:
REMARK  status: ('A' for Active; 'I' for Inactive)
REMARK    1  A    between atoms: C_8  and  N_9 
ROOT
HETATM    1  C   UNL     1      63.483   8.503   4.011  1.00  0.00     0.107 A 
HETATM    2  C   UNL     1      63.783   9.308   5.091  1.00  0.00     0.068 A 
HETATM    3  C   UNL     1      62.581   8.888   3.049  1.00  0.00     0.105 A 
HETATM    4  O   UNL     1      64.006   7.271   3.767  1.00  0.00    -0.323 OA
HETATM    5  O   UNL     1      62.425   7.951   2.077  1.00  0.00    -0.323 OA
HETATM    6  C   UNL     1      63.371   6.953   2.512  1.00  0.00     0.352 A 
HETATM    7  C   UNL     1      61.921  10.094   3.122  1.00  0.00     0.042 A 
HETATM    8  C   UNL     1      63.182  10.569   5.167  1.00  0.00     0.028 A 
HETATM    9  C   UNL     1      62.215  10.930   4.205  1.00  0.00     0.032 A 
ENDROOT
BRANCH   8  10
HETATM   10  N   UNL     1      63.366  11.368   6.304  1.00  0.00    -0.399 N 
HETATM   11  H   UNL     1      64.191  11.288   6.834  1.00  0.00     0.156 HD
HETATM   12  H   UNL     1      62.668  12.009   6.572  1.00  0.00     0.156 HD
ENDBRANCH   8  10
TORSDOF 1
ENDMDL
MODEL 7
REMARK VINA RESULT:      -4.2      2.829      4.125
REMARK  1 active torsions:
REMARK  status: ('A' for Active; 'I' for Inactive)
REMARK    1  A    between atoms: C_8  and  N_9 
ROOT
HETATM    1  C   UNL     1      62.312   8.510   4.265  1.00  0.00     0.107 A 
HETATM    2  C   UNL     1      61.843   9.237   3.190  1.00  0.00     0.068 A 
HETATM    3  C   UNL     1      62.823   9.120   5.385  1.00  0.00     0.105 A 
HETATM    4  O   UNL     1      62.343   7.152   4.355  1.00  0.00    -0.323 OA
HETATM    5  O   UNL     1      63.235   8.227   6.322  1.00  0.00    -0.323 OA
HETATM    6  C   UNL     1      62.879   6.983   5.684  1.00  0.00     0.352 A 
HETATM    7  C   UNL     1      62.903  10.491   5.486  1.00  0.00     0.042 A 
HETATM    8  C   UNL     1      61.846  10.633   3.280  1.00  0.00     0.028 A 
HETATM    9  C   UNL     1      62.425  11.249   4.410  1.00  0.00     0.032 A 
ENDROOT
BRANCH   8  10
HETATM   10  N   UNL     1      61.491  11.410   2.169  1.00  0.00    -0.399 N 
HETATM   11  H   UNL     1      60.617  11.861   2.143  1.00  0.00     0.156 HD
HETATM   12  H   UNL     1      62.117  11.505   1.415  1.00  0.00     0.156 HD
ENDBRANCH   8  10
TORSDOF 1
ENDMDL
MODEL 8
REMARK VINA RESULT:      -4.1      3.170      3.953
REMARK  1 active torsions:
REMARK  status: ('A' for Active; 'I' for Inactive)
REMARK    1  A    between atoms: C_8  and  N_9 
ROOT
HETATM    1  C   UNL     1      64.434   8.815   5.079  1.00  0.00     0.107 A 
HETATM    2  C   UNL     1      63.310   9.571   4.813  1.00  0.00     0.068 A 
HETATM    3  C   UNL     1      64.715   7.665   4.382  1.00  0.00     0.105 A 
HETATM    4  O   UNL     1      65.368   9.086   6.030  1.00  0.00    -0.323 OA
HETATM    5  O   UNL     1      65.862   7.069   4.802  1.00  0.00    -0.323 OA
HETATM    6  C   UNL     1      66.297   8.004   5.811  1.00  0.00     0.352 A 
HETATM    7  C   UNL     1      63.881   7.201   3.389  1.00  0.00     0.042 A 
HETATM    8  C   UNL     1      62.471   9.169   3.767  1.00  0.00     0.028 A 
HETATM    9  C   UNL     1      62.739   7.956   3.097  1.00  0.00     0.032 A 
ENDROOT
BRANCH   8  10
HETATM   10  N   UNL     1      61.260   9.837   3.541  1.00  0.00    -0.399 N 
HETATM   11  H   UNL     1      61.257  10.806   3.376  1.00  0.00     0.156 HD
HETATM   12  H   UNL     1      60.413   9.335   3.549  1.00  0.00     0.156 HD
ENDBRANCH   8  10
TORSDOF 1
ENDMDL
MODEL 9
REMARK VINA RESULT:      -3.9      2.910      3.520
REMARK  1 active torsions:
REMARK  status: ('A' for Active; 'I' for Inactive)
REMARK    1  A    between atoms: C_8  and  N_9 
ROOT
HETATM    1  C   UNL     1      64.799   8.664   5.040  1.00  0.00     0.107 A 
HETATM    2  C   UNL     1      66.016   8.024   5.154  1.00  0.00     0.068 A 
HETATM    3  C   UNL     1      63.814   8.206   4.199  1.00  0.00     0.105 A 
HETATM    4  O   UNL     1      64.427   9.792   5.707  1.00  0.00    -0.323 OA
HETATM    5  O   UNL     1      62.699   8.981   4.232  1.00  0.00    -0.323 OA
HETATM    6  C   UNL     1      63.076   9.953   5.229  1.00  0.00     0.352 A 
HETATM    7  C   UNL     1      63.999   7.088   3.416  1.00  0.00     0.042 A 
HETATM    8  C   UNL     1      66.218   6.848   4.424  1.00  0.00     0.028 A 
HETATM    9  C   UNL     1      65.223   6.418   3.521  1.00  0.00     0.032 A 
ENDROOT
BRANCH   8  10
HETATM   10  N   UNL     1      67.477   6.233   4.417  1.00  0.00    -0.399 N 
HETATM   11  H   UNL     1      67.796   5.754   5.215  1.00  0.00     0.156 HD
HETATM   12  H   UNL     1      68.043   6.280   3.612  1.00  0.00     0.156 HD
ENDBRANCH   8  10
TORSDOF 1
ENDMDL
