MODEL 1
REMARK VINA RESULT:      -4.3      0.000      0.000
REMARK  3 active torsions:
REMARK  status: ('A' for Active; 'I' for Inactive)
REMARK    1  A    between atoms: N_1  and  C_4 
REMARK    2  A    between atoms: C_4  and  C_7 
REMARK    3  A    between atoms: C_7  and  C_8 
ROOT
HETATM    1  N   UNL     1      62.567   8.909   3.683  1.00  0.00    -0.368 N 
ATOM      2  HN  UNL     1      62.721   8.887   4.691  1.00  0.00     0.165 HD
HETATM    3  C   UNL     1      62.144  10.036   3.061  1.00  0.00     0.021 A 
HETATM    4  C   UNL     1      62.778   7.814   2.919  1.00  0.00     0.088 A 
HETATM    5  C   UNL     1      61.918  10.086   1.685  1.00  0.00     0.026 A 
HETATM    6  C   UNL     1      62.578   7.781   1.548  1.00  0.00     0.017 A 
HETATM    7  C   UNL     1      62.140   8.941   0.923  1.00  0.00     0.003 A 
ENDROOT
BRANCH   3   8
HETATM    8  C   UNL     1      61.897  11.245   3.925  1.00  0.00     0.160 C 
BRANCH   8   9
HETATM    9  C   UNL     1      62.775  11.227   5.165  1.00  0.00    -0.072 C 
BRANCH   9  10
HETATM   10  N   UNL     1      63.503  11.212   6.195  1.00  0.00    -0.369 N 
ATOM     11  HN2 UNL     1      62.924  11.223   5.355  1.00  0.00     0.165 HD
ATOM     12  HN1 UNL     1      64.092  11.200   7.028  1.00  0.00     0.165 HD
ENDBRANCH   9  10
ENDBRANCH   8   9
ENDBRANCH   3   8
TORSDOF 3
ENDMDL
MODEL 2
REMARK VINA RESULT:      -4.2      2.139      2.991
REMARK  3 active torsions:
REMARK  status: ('A' for Active; 'I' for Inactive)
REMARK    1  A    between atoms: N_1  and  C_4 
REMARK    2  A    between atoms: C_4  and  C_7 
REMARK    3  A    between atoms: C_7  and  C_8 
ROOT
HETATM    1  N   UNL     1      64.298   9.236   5.449  1.00  0.00    -0.368 N 
ATOM      2  HN  UNL     1      64.450   9.929   6.181  1.00  0.00     0.165 HD
HETATM    3  C   UNL     1      63.307   9.384   4.535  1.00  0.00     0.021 A 
HETATM    4  C   UNL     1      65.075   8.134   5.354  1.00  0.00     0.088 A 
HETATM    5  C   UNL     1      63.075   8.443   3.531  1.00  0.00     0.026 A 
HETATM    6  C   UNL     1      64.911   7.155   4.388  1.00  0.00     0.017 A 
HETATM    7  C   UNL     1      63.890   7.316   3.461  1.00  0.00     0.003 A 
ENDROOT
BRANCH   3   8
HETATM    8  C   UNL     1      62.437  10.607   4.660  1.00  0.00     0.160 C 
BRANCH   8   9
HETATM    9  C   UNL     1      61.941  11.075   3.302  1.00  0.00    -0.072 C 
BRANCH   9  10
HETATM   10  N   UNL     1      61.530  11.463   2.175  1.00  0.00    -0.369 N 
ATOM     11  HN2 UNL     1      61.872  11.158   3.086  1.00  0.00     0.165 HD
ATOM     12  HN1 UNL     1      61.197  11.777   1.263  1.00  0.00     0.165 HD
ENDBRANCH   9  10
ENDBRANCH   8   9
ENDBRANCH   3   8
TORSDOF 3
ENDMDL
MODEL 3
REMARK VINA RESULT:      -4.1      2.359      3.522
REMARK  3 active torsions:
REMARK  status: ('A' for Active; 'I' for Inactive)
REMARK    1  A    between atoms: N_1  and  C_4 
REMARK    2  A    between atoms: C_4  and  C_7 
REMARK    3  A    between atoms: C_7  and  C_8 
ROOT
HETATM    1  N   UNL     1      63.585   9.906   5.530  1.00  0.00    -0.368 N 
ATOM      2  HN  UNL     1      64.137   9.872   6.387  1.00  0.00     0.165 HD
HETATM    3  C   UNL     1      63.630   8.898   4.625  1.00  0.00     0.021 A 
HETATM    4  C   UNL     1      62.784  10.959   5.254  1.00  0.00     0.088 A 
HETATM    5  C   UNL     1      62.891   8.928   3.441  1.00  0.00     0.026 A 
HETATM    6  C   UNL     1      62.020  11.065   4.103  1.00  0.00     0.017 A 
HETATM    7  C   UNL     1      62.077  10.028   3.182  1.00  0.00     0.003 A 
ENDROOT
BRANCH   3   8
HETATM    8  C   UNL     1      64.538   7.738   4.935  1.00  0.00     0.160 C 
BRANCH   8   9
HETATM    9  C   UNL     1      65.639   8.140   5.902  1.00  0.00    -0.072 C 
BRANCH   9  10
HETATM   10  N   UNL     1      66.553   8.474   6.704  1.00  0.00    -0.369 N 
ATOM     11  HN2 UNL     1      65.809   8.216   6.055  1.00  0.00     0.165 HD
ATOM     12  HN1 UNL     1      67.292   8.745   7.353  1.00  0.00     0.165 HD
ENDBRANCH   9  10
ENDBRANCH   8   9
ENDBRANCH   3   8
TORSDOF 3
ENDMDL
MODEL 4
REMARK VINA RESULT:      -4.1      1.949      4.184
REMARK  3 active torsions:
REMARK  status: ('A' for Active; 'I' for Inactive)
REMARK    1  A    between atoms: N_1  and  C_4 
REMARK    2  A    between atoms: C_4  and  C_7 
REMARK    3  A    between atoms: C_7  and  C_8 
ROOT
HETATM    1  N   UNL     1      61.728  10.548   2.810  1.00  0.00    -0.368 N 
ATOM      2  HN  UNL     1      61.159  11.049   2.128  1.00  0.00     0.165 HD
HETATM    3  C   UNL     1      62.244   9.326   2.534  1.00  0.00     0.021 A 
HETATM    4  C   UNL     1      61.995  11.080   4.024  1.00  0.00     0.088 A 
HETATM    5  C   UNL     1      63.017   8.619   3.456  1.00  0.00     0.026 A 
HETATM    6  C   UNL     1      62.754  10.444   4.994  1.00  0.00     0.017 A 
HETATM    7  C   UNL     1      63.272   9.190   4.700  1.00  0.00     0.003 A 
ENDROOT
BRANCH   3   8
HETATM    8  C   UNL     1      61.926   8.737   1.185  1.00  0.00     0.160 C 
BRANCH   8   9
HETATM    9  C   UNL     1      60.430   8.539   1.006  1.00  0.00    -0.072 C 
BRANCH   9  10
HETATM   10  N   UNL     1      59.189   8.375   0.857  1.00  0.00    -0.369 N 
ATOM     11  HN2 UNL     1      60.191   8.508   0.990  1.00  0.00     0.165 HD
ATOM     12  HN1 UNL     1      58.184   8.242   0.737  1.00  0.00     0.165 HD
ENDBRANCH   9  10
ENDBRANCH   8   9
ENDBRANCH   3   8
TORSDOF 3
ENDMDL
MODEL 5
REMARK VINA RESULT:      -4.0      1.403      1.724
REMARK  3 active torsions:
REMARK  status: ('A' for Active; 'I' for Inactive)
REMARK    1  A    between atoms: N_1  and  C_4 
REMARK    2  A    between atoms: C_4  and  C_7 
REMARK    3  A    between atoms: C_7  and  C_8 
ROOT
HETATM    1  N   UNL     1      60.823   9.063   3.154  1.00  0.00    -0.368 N 
ATOM      2  HN  UNL     1      59.985   9.642   3.095  1.00  0.00     0.165 HD
HETATM    3  C   UNL     1      61.984   9.557   3.647  1.00  0.00     0.021 A 
HETATM    4  C   UNL     1      60.815   7.776   2.742  1.00  0.00     0.088 A 
HETATM    5  C   UNL     1      63.146   8.787   3.727  1.00  0.00     0.026 A 
HETATM    6  C   UNL     1      61.924   6.945   2.788  1.00  0.00     0.017 A 
HETATM    7  C   UNL     1      63.109   7.465   3.291  1.00  0.00     0.003 A 
ENDROOT
BRANCH   3   8
HETATM    8  C   UNL     1      61.985  10.997   4.087  1.00  0.00     0.160 C 
BRANCH   8   9
HETATM    9  C   UNL     1      62.852  11.200   5.318  1.00  0.00    -0.072 C 
BRANCH   9  10
HETATM   10  N   UNL     1      63.571  11.367   6.340  1.00  0.00    -0.369 N 
ATOM     11  HN2 UNL     1      62.999  11.225   5.508  1.00  0.00     0.165 HD
ATOM     12  HN1 UNL     1      64.153  11.503   7.167  1.00  0.00     0.165 HD
ENDBRANCH   9  10
ENDBRANCH   8   9
ENDBRANCH   3   8
TORSDOF 3
ENDMDL
MODEL 6
REMARK VINA RESULT:      -3.9      3.490      4.382
REMARK  3 active torsions:
REMARK  status: ('A' for Active; 'I' for Inactive)
REMARK    1  A    between atoms: N_1  and  C_4 
REMARK    2  A    between atoms: C_4  and  C_7 
REMARK    3  A    between atoms: C_7  and  C_8 
ROOT
HETATM    1  N   UNL     1      65.523   8.615   6.125  1.00  0.00    -0.368 N 
ATOM      2  HN  UNL     1      65.109   9.317   6.737  1.00  0.00     0.165 HD
HETATM    3  C   UNL     1      64.881   8.188   5.010  1.00  0.00     0.021 A 
HETATM    4  C   UNL     1      66.732   8.075   6.395  1.00  0.00     0.088 A 
HETATM    5  C   UNL     1      65.425   7.221   4.163  1.00  0.00     0.026 A 
HETATM    6  C   UNL     1      67.341   7.112   5.606  1.00  0.00     0.017 A 
HETATM    7  C   UNL     1      66.671   6.681   4.469  1.00  0.00     0.003 A 
ENDROOT
BRANCH   3   8
HETATM    8  C   UNL     1      63.528   8.785   4.727  1.00  0.00     0.160 C 
BRANCH   8   9
HETATM    9  C   UNL     1      63.376  10.148   5.382  1.00  0.00    -0.072 C 
BRANCH   9  10
HETATM   10  N   UNL     1      63.250  11.279   5.924  1.00  0.00    -0.369 N 
ATOM     11  HN2 UNL     1      63.339  10.364   5.482  1.00  0.00     0.165 HD
ATOM     12  HN1 UNL     1      63.147  12.194   6.364  1.00  0.00     0.165 HD
ENDBRANCH   9  10
ENDBRANCH   8   9
ENDBRANCH   3   8
TORSDOF 3
ENDMDL
MODEL 7
REMARK VINA RESULT:      -3.8      1.626      2.816
REMARK  3 active torsions:
REMARK  status: ('A' for Active; 'I' for Inactive)
REMARK    1  A    between atoms: N_1  and  C_4 
REMARK    2  A    between atoms: C_4  and  C_7 
REMARK    3  A    between atoms: C_7  and  C_8 
ROOT
HETATM    1  N   UNL     1      62.472   9.954   4.110  1.00  0.00    -0.368 N 
ATOM      2  HN  UNL     1      62.669   9.890   5.108  1.00  0.00     0.165 HD
HETATM    3  C   UNL     1      62.656   8.893   3.287  1.00  0.00     0.021 A 
HETATM    4  C   UNL     1      62.018  11.101   3.558  1.00  0.00     0.088 A 
HETATM    5  C   UNL     1      62.402   8.961   1.917  1.00  0.00     0.026 A 
HETATM    6  C   UNL     1      61.741  11.251   2.209  1.00  0.00     0.017 A 
HETATM    7  C   UNL     1      61.939  10.157   1.376  1.00  0.00     0.003 A 
ENDROOT
BRANCH   3   8
HETATM    8  C   UNL     1      63.178   7.625   3.911  1.00  0.00     0.160 C 
BRANCH   8   9
HETATM    9  C   UNL     1      63.084   7.674   5.426  1.00  0.00    -0.072 C 
BRANCH   9  10
HETATM   10  N   UNL     1      63.006   7.715   6.684  1.00  0.00    -0.369 N 
ATOM     11  HN2 UNL     1      63.066   7.669   5.667  1.00  0.00     0.165 HD
ATOM     12  HN1 UNL     1      62.943   7.748   7.702  1.00  0.00     0.165 HD
ENDBRANCH   9  10
ENDBRANCH   8   9
ENDBRANCH   3   8
TORSDOF 3
ENDMDL
MODEL 8
REMARK VINA RESULT:      -3.7     13.336     13.993
REMARK  3 active torsions:
REMARK  status: ('A' for Active; 'I' for Inactive)
REMARK    1  A    between atoms: N_1  and  C_4 
REMARK    2  A    between atoms: C_4  and  C_7 
REMARK    3  A    between atoms: C_7  and  C_8 
ROOT
HETATM    1  N   UNL     1      57.261   1.551  14.472  1.00  0.00    -0.368 N 
ATOM      2  HN  UNL     1      56.742   1.283  15.307  1.00  0.00     0.165 HD
HETATM    3  C   UNL     1      56.630   2.056  13.384  1.00  0.00     0.021 A 
HETATM    4  C   UNL     1      58.604   1.414  14.407  1.00  0.00     0.088 A 
HETATM    5  C   UNL     1      57.319   2.419  12.226  1.00  0.00     0.026 A 
HETATM    6  C   UNL     1      59.361   1.751  13.297  1.00  0.00     0.017 A 
HETATM    7  C   UNL     1      58.702   2.263  12.187  1.00  0.00     0.003 A 
ENDROOT
BRANCH   3   8
HETATM    8  C   UNL     1      55.132   2.189  13.461  1.00  0.00     0.160 C 
BRANCH   8   9
HETATM    9  C   UNL     1      54.723   3.555  13.985  1.00  0.00    -0.072 C 
BRANCH   9  10
HETATM   10  N   UNL     1      54.384   4.689  14.420  1.00  0.00    -0.369 N 
ATOM     11  HN2 UNL     1      54.663   3.769  14.079  1.00  0.00     0.165 HD
ATOM     12  HN1 UNL     1      54.110   5.607  14.772  1.00  0.00     0.165 HD
ENDBRANCH   9  10
ENDBRANCH   8   9
ENDBRANCH   3   8
TORSDOF 3
ENDMDL
MODEL 9
REMARK VINA RESULT:      -3.7      2.329      3.182
REMARK  3 active torsions:
REMARK  status: ('A' for Active; 'I' for Inactive)
REMARK    1  A    between atoms: N_1  and  C_4 
REMARK    2  A    between atoms: C_4  and  C_7 
REMARK    3  A    between atoms: C_7  and  C_8 
ROOT
HETATM    1  N   UNL     1      63.604   7.520   3.305  1.00  0.00    -0.368 N 
ATOM      2  HN  UNL     1      62.779   7.519   2.705  1.00  0.00     0.165 HD
HETATM    3  C   UNL     1      63.783   8.472   4.253  1.00  0.00     0.021 A 
HETATM    4  C   UNL     1      64.559   6.571   3.183  1.00  0.00     0.088 A 
HETATM    5  C   UNL     1      64.909   8.498   5.077  1.00  0.00     0.026 A 
HETATM    6  C   UNL     1      65.704   6.525   3.962  1.00  0.00     0.017 A 
HETATM    7  C   UNL     1      65.878   7.510   4.927  1.00  0.00     0.003 A 
ENDROOT
BRANCH   3   8
HETATM    8  C   UNL     1      62.721   9.533   4.368  1.00  0.00     0.160 C 
BRANCH   8   9
HETATM    9  C   UNL     1      63.107  10.595   5.383  1.00  0.00    -0.072 C 
BRANCH   9  10
HETATM   10  N   UNL     1      63.427  11.477   6.226  1.00  0.00    -0.369 N 
ATOM     11  HN2 UNL     1      63.174  10.770   5.535  1.00  0.00     0.165 HD
ATOM     12  HN1 UNL     1      63.686  12.190   6.908  1.00  0.00     0.165 HD
ENDBRANCH   9  10
ENDBRANCH   8   9
ENDBRANCH   3   8
TORSDOF 3
ENDMDL
