MODEL 1
REMARK VINA RESULT:      -3.9      0.000      0.000
REMARK  1 active torsions:
REMARK  status: ('A' for Active; 'I' for Inactive)
REMARK    1  A    between atoms: C_1  and  C_4 
ROOT
HETATM    1  N   UNL     1      60.202   7.641   2.065  1.00  0.00    -0.075 N 
HETATM    2  C   UNL     1      62.449   9.419   2.660  1.00  0.00     0.090 C 
HETATM    3  C   UNL     1      60.598   8.652   1.086  1.00  0.00     0.233 C 
HETATM    4  C   UNL     1      60.431   8.099   3.433  1.00  0.00     0.233 C 
HETATM    5  C   UNL     1      62.075   9.019   1.227  1.00  0.00     0.043 C 
HETATM    6  C   UNL     1      61.912   8.394   3.663  1.00  0.00     0.043 C 
HETATM    7  H   UNL     1      59.209   7.436   1.946  1.00  0.00     0.277 HD
HETATM    8  H   UNL     1      60.766   6.806   1.909  1.00  0.00     0.277 HD
ENDROOT
BRANCH   2   9
HETATM    9  C   UNL     1      61.969  10.815   2.994  1.00  0.00     0.177 C 
HETATM   10  O   UNL     1      61.523  11.212   4.057  1.00  0.00    -0.648 OA
HETATM   11  O   UNL     1      62.030  11.649   1.934  1.00  0.00    -0.648 OA
ENDBRANCH   2   9
TORSDOF 1
ENDMDL
MODEL 2
REMARK VINA RESULT:      -3.6      3.284      4.085
REMARK  1 active torsions:
REMARK  status: ('A' for Active; 'I' for Inactive)
REMARK    1  A    between atoms: C_1  and  C_4 
ROOT
HETATM    1  N   UNL     1      62.089  10.655   3.880  1.00  0.00    -0.075 N 
HETATM    2  C   UNL     1      63.426   8.182   4.693  1.00  0.00     0.090 C 
HETATM    3  C   UNL     1      62.790  10.604   5.163  1.00  0.00     0.233 C 
HETATM    4  C   UNL     1      61.508   9.360   3.534  1.00  0.00     0.233 C 
HETATM    5  C   UNL     1      63.911   9.565   5.147  1.00  0.00     0.043 C 
HETATM    6  C   UNL     1      62.596   8.296   3.412  1.00  0.00     0.043 C 
HETATM    7  H   UNL     1      61.342  11.349   3.939  1.00  0.00     0.277 HD
HETATM    8  H   UNL     1      62.762  10.907   3.157  1.00  0.00     0.277 HD
ENDROOT
BRANCH   2   9
HETATM    9  C   UNL     1      62.652   7.475   5.786  1.00  0.00     0.177 C 
HETATM   10  O   UNL     1      62.646   7.734   6.977  1.00  0.00    -0.648 OA
HETATM   11  O   UNL     1      61.947   6.423   5.319  1.00  0.00    -0.648 OA
ENDBRANCH   2   9
TORSDOF 1
ENDMDL
MODEL 3
REMARK VINA RESULT:      -3.5      1.667      2.161
REMARK  1 active torsions:
REMARK  status: ('A' for Active; 'I' for Inactive)
REMARK    1  A    between atoms: C_1  and  C_4 
ROOT
HETATM    1  N   UNL     1      61.220   6.965   4.260  1.00  0.00    -0.075 N 
HETATM    2  C   UNL     1      62.938   9.283   3.773  1.00  0.00     0.090 C 
HETATM    3  C   UNL     1      60.665   8.145   3.599  1.00  0.00     0.233 C 
HETATM    4  C   UNL     1      62.253   7.326   5.227  1.00  0.00     0.233 C 
HETATM    5  C   UNL     1      61.748   8.938   2.868  1.00  0.00     0.043 C 
HETATM    6  C   UNL     1      63.412   8.044   4.537  1.00  0.00     0.043 C 
HETATM    7  H   UNL     1      60.468   6.474   4.746  1.00  0.00     0.277 HD
HETATM    8  H   UNL     1      61.643   6.368   3.549  1.00  0.00     0.277 HD
ENDROOT
BRANCH   2   9
HETATM    9  C   UNL     1      62.609  10.417   4.721  1.00  0.00     0.177 C 
HETATM   10  O   UNL     1      62.970  10.545   5.878  1.00  0.00    -0.648 OA
HETATM   11  O   UNL     1      61.783  11.329   4.167  1.00  0.00    -0.648 OA
ENDBRANCH   2   9
TORSDOF 1
ENDMDL
MODEL 4
REMARK VINA RESULT:      -3.5      6.187      6.829
REMARK  1 active torsions:
REMARK  status: ('A' for Active; 'I' for Inactive)
REMARK    1  A    between atoms: C_1  and  C_4 
ROOT
HETATM    1  N   UNL     1      67.436   5.286   4.223  1.00  0.00    -0.075 N 
HETATM    2  C   UNL     1      67.386   7.508   6.127  1.00  0.00     0.090 C 
HETATM    3  C   UNL     1      66.951   6.595   3.788  1.00  0.00     0.233 C 
HETATM    4  C   UNL     1      67.127   5.039   5.629  1.00  0.00     0.233 C 
HETATM    5  C   UNL     1      67.564   7.723   4.619  1.00  0.00     0.043 C 
HETATM    6  C   UNL     1      67.792   6.085   6.521  1.00  0.00     0.043 C 
HETATM    7  H   UNL     1      66.992   4.563   3.655  1.00  0.00     0.277 HD
HETATM    8  H   UNL     1      68.449   5.266   4.110  1.00  0.00     0.277 HD
ENDROOT
BRANCH   2   9
HETATM    9  C   UNL     1      65.971   7.816   6.573  1.00  0.00     0.177 C 
HETATM   10  O   UNL     1      65.265   7.150   7.310  1.00  0.00    -0.648 OA
HETATM   11  O   UNL     1      65.490   8.946   6.015  1.00  0.00    -0.648 OA
ENDBRANCH   2   9
TORSDOF 1
ENDMDL
MODEL 5
REMARK VINA RESULT:      -3.4      2.073      3.044
REMARK  1 active torsions:
REMARK  status: ('A' for Active; 'I' for Inactive)
REMARK    1  A    between atoms: C_1  and  C_4 
ROOT
HETATM    1  N   UNL     1      63.224   7.709   2.623  1.00  0.00    -0.075 N 
HETATM    2  C   UNL     1      62.215   9.122   4.979  1.00  0.00     0.090 C 
HETATM    3  C   UNL     1      64.011   7.706   3.856  1.00  0.00     0.233 C 
HETATM    4  C   UNL     1      62.476   8.954   2.466  1.00  0.00     0.233 C 
HETATM    5  C   UNL     1      63.123   7.891   5.087  1.00  0.00     0.043 C 
HETATM    6  C   UNL     1      61.501   9.148   3.625  1.00  0.00     0.043 C 
HETATM    7  H   UNL     1      63.854   7.598   1.828  1.00  0.00     0.277 HD
HETATM    8  H   UNL     1      62.556   6.939   2.668  1.00  0.00     0.277 HD
ENDROOT
BRANCH   2   9
HETATM    9  C   UNL     1      62.982  10.406   5.217  1.00  0.00     0.177 C 
HETATM   10  O   UNL     1      64.074  10.530   5.746  1.00  0.00    -0.648 OA
HETATM   11  O   UNL     1      62.299  11.497   4.814  1.00  0.00    -0.648 OA
ENDBRANCH   2   9
TORSDOF 1
ENDMDL
MODEL 6
REMARK VINA RESULT:      -3.4      7.225      8.009
REMARK  1 active torsions:
REMARK  status: ('A' for Active; 'I' for Inactive)
REMARK    1  A    between atoms: C_1  and  C_4 
ROOT
HETATM    1  N   UNL     1      65.297   7.903   6.167  1.00  0.00    -0.075 N 
HETATM    2  C   UNL     1      67.004   5.596   6.742  1.00  0.00     0.090 C 
HETATM    3  C   UNL     1      66.690   8.118   6.556  1.00  0.00     0.233 C 
HETATM    4  C   UNL     1      64.736   6.719   6.813  1.00  0.00     0.233 C 
HETATM    5  C   UNL     1      67.564   6.916   6.196  1.00  0.00     0.043 C 
HETATM    6  C   UNL     1      65.513   5.466   6.416  1.00  0.00     0.043 C 
HETATM    7  H   UNL     1      64.747   8.720   6.438  1.00  0.00     0.277 HD
HETATM    8  H   UNL     1      65.264   7.762   5.158  1.00  0.00     0.277 HD
ENDROOT
BRANCH   2   9
HETATM    9  C   UNL     1      67.253   5.456   8.229  1.00  0.00     0.177 C 
HETATM   10  O   UNL     1      68.055   6.074   8.908  1.00  0.00    -0.648 OA
HETATM   11  O   UNL     1      66.497   4.489   8.789  1.00  0.00    -0.648 OA
ENDBRANCH   2   9
TORSDOF 1
ENDMDL
MODEL 7
REMARK VINA RESULT:      -3.3      6.265      6.878
REMARK  1 active torsions:
REMARK  status: ('A' for Active; 'I' for Inactive)
REMARK    1  A    between atoms: C_1  and  C_4 
ROOT
HETATM    1  N   UNL     1      65.654   4.593   6.103  1.00  0.00    -0.075 N 
HETATM    2  C   UNL     1      66.919   7.051   7.064  1.00  0.00     0.090 C 
HETATM    3  C   UNL     1      66.859   5.089   5.440  1.00  0.00     0.233 C 
HETATM    4  C   UNL     1      64.833   5.688   6.614  1.00  0.00     0.233 C 
HETATM    5  C   UNL     1      67.716   5.927   6.388  1.00  0.00     0.043 C 
HETATM    6  C   UNL     1      65.608   6.511   7.641  1.00  0.00     0.043 C 
HETATM    7  H   UNL     1      65.106   4.052   5.433  1.00  0.00     0.277 HD
HETATM    8  H   UNL     1      65.938   4.012   6.892  1.00  0.00     0.277 HD
ENDROOT
BRANCH   2   9
HETATM    9  C   UNL     1      66.665   8.204   6.115  1.00  0.00     0.177 C 
HETATM   10  O   UNL     1      65.727   8.983   6.129  1.00  0.00    -0.648 OA
HETATM   11  O   UNL     1      67.600   8.290   5.146  1.00  0.00    -0.648 OA
ENDBRANCH   2   9
TORSDOF 1
ENDMDL
MODEL 8
REMARK VINA RESULT:      -3.2      7.231      7.872
REMARK  1 active torsions:
REMARK  status: ('A' for Active; 'I' for Inactive)
REMARK    1  A    between atoms: C_1  and  C_4 
ROOT
HETATM    1  N   UNL     1      67.708   6.483   4.742  1.00  0.00    -0.075 N 
HETATM    2  C   UNL     1      65.728   6.512   6.898  1.00  0.00     0.090 C 
HETATM    3  C   UNL     1      67.316   5.225   5.377  1.00  0.00     0.233 C 
HETATM    4  C   UNL     1      67.671   7.596   5.688  1.00  0.00     0.233 C 
HETATM    5  C   UNL     1      65.907   5.308   5.964  1.00  0.00     0.043 C 
HETATM    6  C   UNL     1      66.260   7.789   6.241  1.00  0.00     0.043 C 
HETATM    7  H   UNL     1      68.657   6.389   4.378  1.00  0.00     0.277 HD
HETATM    8  H   UNL     1      67.048   6.682   3.991  1.00  0.00     0.277 HD
ENDROOT
BRANCH   2   9
HETATM    9  C   UNL     1      66.381   6.276   8.244  1.00  0.00     0.177 C 
HETATM   10  O   UNL     1      67.077   7.052   8.877  1.00  0.00    -0.648 OA
HETATM   11  O   UNL     1      66.161   5.030   8.713  1.00  0.00    -0.648 OA
ENDBRANCH   2   9
TORSDOF 1
ENDMDL
MODEL 9
REMARK VINA RESULT:      -3.2      3.700      4.541
REMARK  1 active torsions:
REMARK  status: ('A' for Active; 'I' for Inactive)
REMARK    1  A    between atoms: C_1  and  C_4 
ROOT
HETATM    1  N   UNL     1      63.794   6.850   2.760  1.00  0.00    -0.075 N 
HETATM    2  C   UNL     1      64.434   8.289   5.227  1.00  0.00     0.090 C 
HETATM    3  C   UNL     1      62.773   7.685   3.391  1.00  0.00     0.233 C 
HETATM    4  C   UNL     1      64.683   6.247   3.751  1.00  0.00     0.233 C 
HETATM    5  C   UNL     1      63.401   8.807   4.219  1.00  0.00     0.043 C 
HETATM    6  C   UNL     1      65.412   7.324   4.550  1.00  0.00     0.043 C 
HETATM    7  H   UNL     1      63.334   6.107   2.232  1.00  0.00     0.277 HD
HETATM    8  H   UNL     1      64.355   7.439   2.145  1.00  0.00     0.277 HD
ENDROOT
BRANCH   2   9
HETATM    9  C   UNL     1      63.770   7.643   6.425  1.00  0.00     0.177 C 
HETATM   10  O   UNL     1      62.594   7.697   6.740  1.00  0.00    -0.648 OA
HETATM   11  O   UNL     1      64.650   6.988   7.211  1.00  0.00    -0.648 OA
ENDBRANCH   2   9
TORSDOF 1
ENDMDL
