MODEL 1
REMARK VINA RESULT:      -4.6      0.000      0.000
REMARK  1 active torsions:
REMARK  status: ('A' for Active; 'I' for Inactive)
REMARK    1  A    between atoms: C_7  and  N_8 
ROOT
HETATM    1  C   UNL     1      62.731   8.973   3.400  1.00  0.00     0.104 A 
HETATM    2  C   UNL     1      63.148   9.425   4.654  1.00  0.00     0.068 A 
HETATM    3  C   UNL     1      62.038   9.830   2.542  1.00  0.00     0.102 A 
HETATM    4  O   UNL     1      63.059   7.681   3.070  1.00  0.00    -0.346 OA
HETATM    5  O   UNL     1      61.648   9.473   1.276  1.00  0.00    -0.346 OA
HETATM    6  C   UNL     1      61.725  11.121   2.955  1.00  0.00     0.042 A 
HETATM    7  C   UNL     1      62.813  10.710   5.092  1.00  0.00     0.028 A 
HETATM    8  C   UNL     1      62.133  11.564   4.216  1.00  0.00     0.032 A 
HETATM    9  C   UNL     1      62.327   7.237   1.921  1.00  0.00     0.202 C 
HETATM   10  C   UNL     1      62.340   8.299   0.836  1.00  0.00     0.202 C 
ENDROOT
BRANCH   7  11
HETATM   11  N   UNL     1      63.348  11.210   6.286  1.00  0.00    -0.399 N 
HETATM   12  H   UNL     1      62.912  11.003   7.144  1.00  0.00     0.156 HD
HETATM   13  H   UNL     1      64.159  11.767   6.266  1.00  0.00     0.156 HD
ENDBRANCH   7  11
TORSDOF 1
ENDMDL
MODEL 2
REMARK VINA RESULT:      -4.5      2.123      3.228
REMARK  1 active torsions:
REMARK  status: ('A' for Active; 'I' for Inactive)
REMARK    1  A    between atoms: C_7  and  N_8 
ROOT
HETATM    1  C   UNL     1      63.104   8.630   3.760  1.00  0.00     0.104 A 
HETATM    2  C   UNL     1      62.432   9.386   2.796  1.00  0.00     0.068 A 
HETATM    3  C   UNL     1      63.324   9.158   5.034  1.00  0.00     0.102 A 
HETATM    4  O   UNL     1      63.498   7.369   3.390  1.00  0.00    -0.346 OA
HETATM    5  O   UNL     1      63.925   8.454   6.047  1.00  0.00    -0.346 OA
HETATM    6  C   UNL     1      62.911  10.453   5.330  1.00  0.00     0.042 A 
HETATM    7  C   UNL     1      62.041  10.700   3.072  1.00  0.00     0.028 A 
HETATM    8  C   UNL     1      62.253  11.210   4.357  1.00  0.00     0.032 A 
HETATM    9  C   UNL     1      64.429   6.818   4.329  1.00  0.00     0.202 C 
HETATM   10  C   UNL     1      63.953   7.052   5.752  1.00  0.00     0.202 C 
ENDROOT
BRANCH   7  11
HETATM   11  N   UNL     1      61.247  11.405   2.158  1.00  0.00    -0.399 N 
HETATM   12  H   UNL     1      61.107  11.049   1.251  1.00  0.00     0.156 HD
HETATM   13  H   UNL     1      60.832  12.257   2.423  1.00  0.00     0.156 HD
ENDBRANCH   7  11
TORSDOF 1
ENDMDL
MODEL 3
REMARK VINA RESULT:      -4.5      2.829      4.277
REMARK  1 active torsions:
REMARK  status: ('A' for Active; 'I' for Inactive)
REMARK    1  A    between atoms: C_7  and  N_8 
ROOT
HETATM    1  C   UNL     1      64.559   8.686   5.021  1.00  0.00     0.104 A 
HETATM    2  C   UNL     1      63.397   9.439   4.837  1.00  0.00     0.068 A 
HETATM    3  C   UNL     1      64.799   7.563   4.225  1.00  0.00     0.102 A 
HETATM    4  O   UNL     1      65.432   9.123   5.986  1.00  0.00    -0.346 OA
HETATM    5  O   UNL     1      65.942   6.810   4.310  1.00  0.00    -0.346 OA
HETATM    6  C   UNL     1      63.857   7.171   3.279  1.00  0.00     0.042 A 
HETATM    7  C   UNL     1      62.431   9.037   3.911  1.00  0.00     0.028 A 
HETATM    8  C   UNL     1      62.690   7.920   3.109  1.00  0.00     0.032 A 
HETATM    9  C   UNL     1      66.410   8.123   6.295  1.00  0.00     0.202 C 
HETATM   10  C   UNL     1      66.969   7.513   5.021  1.00  0.00     0.202 C 
ENDROOT
BRANCH   7  11
HETATM   11  N   UNL     1      61.336   9.865   3.629  1.00  0.00    -0.399 N 
HETATM   12  H   UNL     1      60.523   9.484   3.228  1.00  0.00     0.156 HD
HETATM   13  H   UNL     1      61.382  10.827   3.833  1.00  0.00     0.156 HD
ENDBRANCH   7  11
TORSDOF 1
ENDMDL
MODEL 4
REMARK VINA RESULT:      -4.4      2.106      3.326
REMARK  1 active torsions:
REMARK  status: ('A' for Active; 'I' for Inactive)
REMARK    1  A    between atoms: C_7  and  N_8 
ROOT
HETATM    1  C   UNL     1      62.646   9.118   4.386  1.00  0.00     0.104 A 
HETATM    2  C   UNL     1      62.201  10.367   3.947  1.00  0.00     0.068 A 
HETATM    3  C   UNL     1      62.842   8.083   3.469  1.00  0.00     0.102 A 
HETATM    4  O   UNL     1      62.893   8.989   5.730  1.00  0.00    -0.346 OA
HETATM    5  O   UNL     1      63.330   6.849   3.820  1.00  0.00    -0.346 OA
HETATM    6  C   UNL     1      62.552   8.283   2.124  1.00  0.00     0.042 A 
HETATM    7  C   UNL     1      61.877  10.571   2.602  1.00  0.00     0.028 A 
HETATM    8  C   UNL     1      62.092   9.530   1.692  1.00  0.00     0.032 A 
HETATM    9  C   UNL     1      63.039   7.613   6.103  1.00  0.00     0.202 C 
HETATM   10  C   UNL     1      63.938   6.886   5.117  1.00  0.00     0.202 C 
ENDROOT
BRANCH   7  11
HETATM   11  N   UNL     1      61.565  11.856   2.139  1.00  0.00    -0.399 N 
HETATM   12  H   UNL     1      60.831  12.363   2.555  1.00  0.00     0.156 HD
HETATM   13  H   UNL     1      62.080  12.250   1.399  1.00  0.00     0.156 HD
ENDBRANCH   7  11
TORSDOF 1
ENDMDL
MODEL 5
REMARK VINA RESULT:      -4.3      0.861      2.179
REMARK  1 active torsions:
REMARK  status: ('A' for Active; 'I' for Inactive)
REMARK    1  A    between atoms: C_7  and  N_8 
ROOT
HETATM    1  C   UNL     1      62.261   9.542   3.009  1.00  0.00     0.104 A 
HETATM    2  C   UNL     1      62.310  10.524   4.000  1.00  0.00     0.068 A 
HETATM    3  C   UNL     1      63.015   8.373   3.143  1.00  0.00     0.102 A 
HETATM    4  O   UNL     1      61.432   9.783   1.942  1.00  0.00    -0.346 OA
HETATM    5  O   UNL     1      62.973   7.342   2.239  1.00  0.00    -0.346 OA
HETATM    6  C   UNL     1      63.848   8.209   4.245  1.00  0.00     0.042 A 
HETATM    7  C   UNL     1      63.167  10.383   5.096  1.00  0.00     0.028 A 
HETATM    8  C   UNL     1      63.904   9.201   5.227  1.00  0.00     0.032 A 
HETATM    9  C   UNL     1      61.694   8.876   0.863  1.00  0.00     0.202 C 
HETATM   10  C   UNL     1      61.830   7.455   1.383  1.00  0.00     0.202 C 
ENDROOT
BRANCH   7  11
HETATM   11  N   UNL     1      63.113  11.299   6.155  1.00  0.00    -0.399 N 
HETATM   12  H   UNL     1      62.640  12.154   6.041  1.00  0.00     0.156 HD
HETATM   13  H   UNL     1      63.548  11.085   7.012  1.00  0.00     0.156 HD
ENDBRANCH   7  11
TORSDOF 1
ENDMDL
MODEL 6
REMARK VINA RESULT:      -4.0      3.440      4.756
REMARK  1 active torsions:
REMARK  status: ('A' for Active; 'I' for Inactive)
REMARK    1  A    between atoms: C_7  and  N_8 
ROOT
HETATM    1  C   UNL     1      65.253   7.401   4.404  1.00  0.00     0.104 A 
HETATM    2  C   UNL     1      64.379   6.871   3.452  1.00  0.00     0.068 A 
HETATM    3  C   UNL     1      64.893   8.540   5.128  1.00  0.00     0.102 A 
HETATM    4  O   UNL     1      66.439   6.735   4.591  1.00  0.00    -0.346 OA
HETATM    5  O   UNL     1      65.675   9.083   6.116  1.00  0.00    -0.346 OA
HETATM    6  C   UNL     1      63.681   9.172   4.868  1.00  0.00     0.042 A 
HETATM    7  C   UNL     1      63.172   7.514   3.162  1.00  0.00     0.028 A 
HETATM    8  C   UNL     1      62.816   8.646   3.905  1.00  0.00     0.032 A 
HETATM    9  C   UNL     1      67.366   7.526   5.345  1.00  0.00     0.202 C 
HETATM   10  C   UNL     1      66.679   8.156   6.544  1.00  0.00     0.202 C 
ENDROOT
BRANCH   7  11
HETATM   11  N   UNL     1      62.238   6.909   2.312  1.00  0.00    -0.399 N 
HETATM   12  H   UNL     1      61.432   6.487   2.689  1.00  0.00     0.156 HD
HETATM   13  H   UNL     1      62.387   6.907   1.339  1.00  0.00     0.156 HD
ENDBRANCH   7  11
TORSDOF 1
ENDMDL
MODEL 7
REMARK VINA RESULT:      -4.0      4.224      5.384
REMARK  1 active torsions:
REMARK  status: ('A' for Active; 'I' for Inactive)
REMARK    1  A    between atoms: C_7  and  N_8 
ROOT
HETATM    1  C   UNL     1      64.916   7.144   6.522  1.00  0.00     0.104 A 
HETATM    2  C   UNL     1      65.815   6.787   7.529  1.00  0.00     0.068 A 
HETATM    3  C   UNL     1      65.378   7.391   5.227  1.00  0.00     0.102 A 
HETATM    4  O   UNL     1      63.591   7.209   6.873  1.00  0.00    -0.346 OA
HETATM    5  O   UNL     1      64.548   7.691   4.176  1.00  0.00    -0.346 OA
HETATM    6  C   UNL     1      66.740   7.325   4.952  1.00  0.00     0.042 A 
HETATM    7  C   UNL     1      67.189   6.747   7.272  1.00  0.00     0.028 A 
HETATM    8  C   UNL     1      67.637   6.981   5.967  1.00  0.00     0.032 A 
HETATM    9  C   UNL     1      62.818   7.873   5.865  1.00  0.00     0.202 C 
HETATM   10  C   UNL     1      63.189   7.361   4.484  1.00  0.00     0.202 C 
ENDROOT
BRANCH   7  11
HETATM   11  N   UNL     1      68.073   6.256   8.241  1.00  0.00    -0.399 N 
HETATM   12  H   UNL     1      67.730   5.957   9.113  1.00  0.00     0.156 HD
HETATM   13  H   UNL     1      69.038   6.210   8.048  1.00  0.00     0.156 HD
ENDBRANCH   7  11
TORSDOF 1
ENDMDL
MODEL 8
REMARK VINA RESULT:      -3.9      1.419      1.734
REMARK  1 active torsions:
REMARK  status: ('A' for Active; 'I' for Inactive)
REMARK    1  A    between atoms: C_7  and  N_8 
ROOT
HETATM    1  C   UNL     1      63.103   8.032   2.928  1.00  0.00     0.104 A 
HETATM    2  C   UNL     1      63.987   7.791   3.982  1.00  0.00     0.068 A 
HETATM    3  C   UNL     1      62.293   9.170   2.941  1.00  0.00     0.102 A 
HETATM    4  O   UNL     1      63.101   7.119   1.903  1.00  0.00    -0.346 OA
HETATM    5  O   UNL     1      61.443   9.501   1.917  1.00  0.00    -0.346 OA
HETATM    6  C   UNL     1      62.337  10.040   4.026  1.00  0.00     0.042 A 
HETATM    7  C   UNL     1      64.019   8.642   5.090  1.00  0.00     0.028 A 
HETATM    8  C   UNL     1      63.214   9.787   5.084  1.00  0.00     0.032 A 
HETATM    9  C   UNL     1      61.961   7.295   1.052  1.00  0.00     0.202 C 
HETATM   10  C   UNL     1      61.759   8.766   0.728  1.00  0.00     0.202 C 
ENDROOT
BRANCH   7  11
HETATM   11  N   UNL     1      64.999   8.478   6.077  1.00  0.00    -0.399 N 
HETATM   12  H   UNL     1      65.101   7.610   6.530  1.00  0.00     0.156 HD
HETATM   13  H   UNL     1      65.586   9.232   6.317  1.00  0.00     0.156 HD
ENDBRANCH   7  11
TORSDOF 1
ENDMDL
MODEL 9
REMARK VINA RESULT:      -3.8      2.103      3.134
REMARK  1 active torsions:
REMARK  status: ('A' for Active; 'I' for Inactive)
REMARK    1  A    between atoms: C_7  and  N_8 
ROOT
HETATM    1  C   UNL     1      63.130   9.016   3.852  1.00  0.00     0.104 A 
HETATM    2  C   UNL     1      63.900   8.991   5.018  1.00  0.00     0.068 A 
HETATM    3  C   UNL     1      63.184   7.946   2.956  1.00  0.00     0.102 A 
HETATM    4  O   UNL     1      62.328  10.114   3.666  1.00  0.00    -0.346 OA
HETATM    5  O   UNL     1      62.416   7.876   1.821  1.00  0.00    -0.346 OA
HETATM    6  C   UNL     1      64.037   6.875   3.203  1.00  0.00     0.042 A 
HETATM    7  C   UNL     1      64.783   7.935   5.262  1.00  0.00     0.028 A 
HETATM    8  C   UNL     1      64.815   6.862   4.364  1.00  0.00     0.032 A 
HETATM    9  C   UNL     1      61.836  10.177   2.321  1.00  0.00     0.202 C 
HETATM   10  C   UNL     1      61.335   8.815   1.873  1.00  0.00     0.202 C 
ENDROOT
BRANCH   7  11
HETATM   11  N   UNL     1      65.447   7.842   6.492  1.00  0.00    -0.399 N 
HETATM   12  H   UNL     1      64.936   7.890   7.331  1.00  0.00     0.156 HD
HETATM   13  H   UNL     1      66.425   7.729   6.515  1.00  0.00     0.156 HD
ENDBRANCH   7  11
TORSDOF 1
ENDMDL
