MODEL 1
REMARK VINA RESULT:      -4.2      0.000      0.000
REMARK  1 active torsions:
REMARK  status: ('A' for Active; 'I' for Inactive)
REMARK    1  A    between atoms: C_1  and  C_6 
ROOT
HETATM    1  C   UNL     1      63.248   9.503   4.481  1.00  0.00     0.209 A 
HETATM    2  N   UNL     1      63.633   8.314   3.941  1.00  0.00    -0.308 N 
HETATM    3  N   UNL     1      63.920   9.825   5.561  1.00  0.00    -0.279 N 
ATOM      4  HN  UNL     1      63.811  10.662   6.134  1.00  0.00     0.188 HD
HETATM    5  C   UNL     1      64.633   7.847   4.763  1.00  0.00     0.194 A 
HETATM    6  N   UNL     1      64.792   8.799   5.750  1.00  0.00    -0.274 N 
HETATM    7  S   UNL     1      65.520   6.452   4.676  1.00  0.00    -0.039 SA
HETATM    8  C   UNL     1      63.164   7.627   2.747  1.00  0.00     0.160 C 
HETATM    9  H   UNL     1      65.445   8.744   6.486  1.00  0.00     0.189 HD
ENDROOT
BRANCH   1  10
HETATM   10  C   UNL     1      62.150  10.408   3.932  1.00  0.00     0.450 C 
HETATM   11  F   UNL     1      62.312  10.780   2.634  1.00  0.00    -0.163 F 
HETATM   12  F   UNL     1      60.924   9.814   3.992  1.00  0.00    -0.163 F 
HETATM   13  F   UNL     1      62.046  11.569   4.638  1.00  0.00    -0.163 F 
ENDBRANCH   1  10
TORSDOF 1
ENDMDL
MODEL 2
REMARK VINA RESULT:      -4.2      2.753      3.374
REMARK  1 active torsions:
REMARK  status: ('A' for Active; 'I' for Inactive)
REMARK    1  A    between atoms: C_1  and  C_6 
ROOT
HETATM    1  C   UNL     1      62.481   9.894   3.832  1.00  0.00     0.209 A 
HETATM    2  N   UNL     1      62.709   8.843   2.998  1.00  0.00    -0.308 N 
HETATM    3  N   UNL     1      61.746  10.838   3.291  1.00  0.00    -0.279 N 
ATOM      4  HN  UNL     1      61.446  11.713   3.719  1.00  0.00     0.188 HD
HETATM    5  C   UNL     1      62.062   9.161   1.825  1.00  0.00     0.194 A 
HETATM    6  N   UNL     1      61.474  10.393   2.035  1.00  0.00    -0.274 N 
HETATM    7  S   UNL     1      61.951   8.316   0.406  1.00  0.00    -0.039 SA
HETATM    8  C   UNL     1      63.439   7.605   3.222  1.00  0.00     0.160 C 
HETATM    9  H   UNL     1      60.934  10.880   1.371  1.00  0.00     0.189 HD
ENDROOT
BRANCH   1  10
HETATM   10  C   UNL     1      63.007  10.020   5.259  1.00  0.00     0.450 C 
HETATM   11  F   UNL     1      64.357   9.921   5.380  1.00  0.00    -0.163 F 
HETATM   12  F   UNL     1      62.674  11.217   5.819  1.00  0.00    -0.163 F 
HETATM   13  F   UNL     1      62.491   9.059   6.077  1.00  0.00    -0.163 F 
ENDBRANCH   1  10
TORSDOF 1
ENDMDL
MODEL 3
REMARK VINA RESULT:      -3.8      3.155      3.772
REMARK  1 active torsions:
REMARK  status: ('A' for Active; 'I' for Inactive)
REMARK    1  A    between atoms: C_1  and  C_6 
ROOT
HETATM    1  C   UNL     1      65.435   7.572   6.204  1.00  0.00     0.209 A 
HETATM    2  N   UNL     1      65.516   6.342   6.779  1.00  0.00    -0.308 N 
HETATM    3  N   UNL     1      66.358   8.406   6.625  1.00  0.00    -0.279 N 
ATOM      4  HN  UNL     1      66.497   9.375   6.339  1.00  0.00     0.188 HD
HETATM    5  C   UNL     1      66.585   6.414   7.644  1.00  0.00     0.194 A 
HETATM    6  N   UNL     1      67.087   7.695   7.526  1.00  0.00    -0.274 N 
HETATM    7  S   UNL     1      67.215   5.266   8.657  1.00  0.00    -0.039 SA
HETATM    8  C   UNL     1      64.712   5.148   6.567  1.00  0.00     0.160 C 
HETATM    9  H   UNL     1      67.863   8.044   8.023  1.00  0.00     0.189 HD
ENDROOT
BRANCH   1  10
HETATM   10  C   UNL     1      64.394   7.999   5.173  1.00  0.00     0.450 C 
HETATM   11  F   UNL     1      64.452   7.326   3.993  1.00  0.00    -0.163 F 
HETATM   12  F   UNL     1      63.123   7.825   5.633  1.00  0.00    -0.163 F 
HETATM   13  F   UNL     1      64.507   9.319   4.851  1.00  0.00    -0.163 F 
ENDBRANCH   1  10
TORSDOF 1
ENDMDL
MODEL 4
REMARK VINA RESULT:      -3.8      3.508      3.996
REMARK  1 active torsions:
REMARK  status: ('A' for Active; 'I' for Inactive)
REMARK    1  A    between atoms: C_1  and  C_6 
ROOT
HETATM    1  C   UNL     1      64.664   8.602   5.122  1.00  0.00     0.209 A 
HETATM    2  N   UNL     1      63.911   8.087   4.113  1.00  0.00    -0.308 N 
HETATM    3  N   UNL     1      64.134   9.668   5.676  1.00  0.00    -0.279 N 
ATOM      4  HN  UNL     1      64.511  10.221   6.445  1.00  0.00     0.188 HD
HETATM    5  C   UNL     1      62.810   8.910   4.023  1.00  0.00     0.194 A 
HETATM    6  N   UNL     1      62.971   9.872   5.001  1.00  0.00    -0.274 N 
HETATM    7  S   UNL     1      61.513   8.846   2.996  1.00  0.00    -0.039 SA
HETATM    8  C   UNL     1      64.129   6.916   3.278  1.00  0.00     0.160 C 
HETATM    9  H   UNL     1      62.335  10.601   5.183  1.00  0.00     0.189 HD
ENDROOT
BRANCH   1  10
HETATM   10  C   UNL     1      66.001   8.044   5.600  1.00  0.00     0.450 C 
HETATM   11  F   UNL     1      66.981   8.023   4.657  1.00  0.00    -0.163 F 
HETATM   12  F   UNL     1      66.509   8.762   6.641  1.00  0.00    -0.163 F 
HETATM   13  F   UNL     1      65.887   6.759   6.042  1.00  0.00    -0.163 F 
ENDBRANCH   1  10
TORSDOF 1
ENDMDL
MODEL 5
REMARK VINA RESULT:      -3.8      1.465      1.927
REMARK  1 active torsions:
REMARK  status: ('A' for Active; 'I' for Inactive)
REMARK    1  A    between atoms: C_1  and  C_6 
ROOT
HETATM    1  C   UNL     1      64.072   8.489   4.747  1.00  0.00     0.209 A 
HETATM    2  N   UNL     1      64.843   7.436   4.363  1.00  0.00    -0.308 N 
HETATM    3  N   UNL     1      64.563   9.149   5.770  1.00  0.00    -0.279 N 
ATOM      4  HN  UNL     1      64.167   9.968   6.230  1.00  0.00     0.188 HD
HETATM    5  C   UNL     1      65.912   7.432   5.230  1.00  0.00     0.194 A 
HETATM    6  N   UNL     1      65.717   8.500   6.083  1.00  0.00    -0.274 N 
HETATM    7  S   UNL     1      67.210   6.408   5.316  1.00  0.00    -0.039 SA
HETATM    8  C   UNL     1      64.667   6.488   3.273  1.00  0.00     0.160 C 
HETATM    9  H   UNL     1      66.326   8.756   6.813  1.00  0.00     0.189 HD
ENDROOT
BRANCH   1  10
HETATM   10  C   UNL     1      62.757   8.905   4.095  1.00  0.00     0.450 C 
HETATM   11  F   UNL     1      61.756   7.990   4.193  1.00  0.00    -0.163 F 
HETATM   12  F   UNL     1      62.260  10.052   4.639  1.00  0.00    -0.163 F 
HETATM   13  F   UNL     1      62.904   9.149   2.761  1.00  0.00    -0.163 F 
ENDBRANCH   1  10
TORSDOF 1
ENDMDL
MODEL 6
REMARK VINA RESULT:      -3.6      4.377      5.034
REMARK  1 active torsions:
REMARK  status: ('A' for Active; 'I' for Inactive)
REMARK    1  A    between atoms: C_1  and  C_6 
ROOT
HETATM    1  C   UNL     1      65.503   7.366   6.141  1.00  0.00     0.209 A 
HETATM    2  N   UNL     1      64.561   6.405   6.338  1.00  0.00    -0.308 N 
HETATM    3  N   UNL     1      64.995   8.546   5.869  1.00  0.00    -0.279 N 
ATOM      4  HN  UNL     1      65.500   9.412   5.686  1.00  0.00     0.188 HD
HETATM    5  C   UNL     1      63.351   7.039   6.167  1.00  0.00     0.194 A 
HETATM    6  N   UNL     1      63.648   8.358   5.883  1.00  0.00    -0.274 N 
HETATM    7  S   UNL     1      61.810   6.440   6.260  1.00  0.00    -0.039 SA
HETATM    8  C   UNL     1      64.708   4.999   6.683  1.00  0.00     0.160 C 
HETATM    9  H   UNL     1      62.980   9.062   5.716  1.00  0.00     0.189 HD
ENDROOT
BRANCH   1  10
HETATM   10  C   UNL     1      67.012   7.152   6.212  1.00  0.00     0.450 C 
HETATM   11  F   UNL     1      67.487   6.169   5.401  1.00  0.00    -0.163 F 
HETATM   12  F   UNL     1      67.702   8.276   5.869  1.00  0.00    -0.163 F 
HETATM   13  F   UNL     1      67.421   6.822   7.470  1.00  0.00    -0.163 F 
ENDBRANCH   1  10
TORSDOF 1
ENDMDL
MODEL 7
REMARK VINA RESULT:      -3.6      3.504      4.043
REMARK  1 active torsions:
REMARK  status: ('A' for Active; 'I' for Inactive)
REMARK    1  A    between atoms: C_1  and  C_6 
ROOT
HETATM    1  C   UNL     1      64.429   8.140   4.849  1.00  0.00     0.209 A 
HETATM    2  N   UNL     1      63.474   8.504   3.951  1.00  0.00    -0.308 N 
HETATM    3  N   UNL     1      64.589   9.008   5.821  1.00  0.00    -0.279 N 
ATOM      4  HN  UNL     1      65.239   8.952   6.604  1.00  0.00     0.188 HD
HETATM    5  C   UNL     1      62.996   9.715   4.398  1.00  0.00     0.194 A 
HETATM    6  N   UNL     1      63.697   9.999   5.554  1.00  0.00    -0.274 N 
HETATM    7  S   UNL     1      61.830  10.702   3.760  1.00  0.00    -0.039 SA
HETATM    8  C   UNL     1      62.983   7.815   2.767  1.00  0.00     0.160 C 
HETATM    9  H   UNL     1      63.569  10.805   6.106  1.00  0.00     0.189 HD
ENDROOT
BRANCH   1  10
HETATM   10  C   UNL     1      65.265   6.865   4.781  1.00  0.00     0.450 C 
HETATM   11  F   UNL     1      66.166   6.719   5.790  1.00  0.00    -0.163 F 
HETATM   12  F   UNL     1      64.489   5.746   4.817  1.00  0.00    -0.163 F 
HETATM   13  F   UNL     1      65.988   6.792   3.628  1.00  0.00    -0.163 F 
ENDBRANCH   1  10
TORSDOF 1
ENDMDL
MODEL 8
REMARK VINA RESULT:      -3.5      3.853      4.656
REMARK  1 active torsions:
REMARK  status: ('A' for Active; 'I' for Inactive)
REMARK    1  A    between atoms: C_1  and  C_6 
ROOT
HETATM    1  C   UNL     1      60.889   8.248   2.386  1.00  0.00     0.209 A 
HETATM    2  N   UNL     1      60.491   7.537   3.476  1.00  0.00    -0.308 N 
HETATM    3  N   UNL     1      59.903   8.555   1.576  1.00  0.00    -0.279 N 
ATOM      4  HN  UNL     1      59.957   9.079   0.703  1.00  0.00     0.188 HD
HETATM    5  C   UNL     1      59.131   7.379   3.331  1.00  0.00     0.194 A 
HETATM    6  N   UNL     1      58.795   8.020   2.154  1.00  0.00    -0.274 N 
HETATM    7  S   UNL     1      58.038   6.603   4.303  1.00  0.00    -0.039 SA
HETATM    8  C   UNL     1      61.259   7.037   4.606  1.00  0.00     0.160 C 
HETATM    9  H   UNL     1      57.883   8.081   1.787  1.00  0.00     0.189 HD
ENDROOT
BRANCH   1  10
HETATM   10  C   UNL     1      62.324   8.669   2.082  1.00  0.00     0.450 C 
HETATM   11  F   UNL     1      63.211   7.643   1.984  1.00  0.00    -0.163 F 
HETATM   12  F   UNL     1      62.416   9.348   0.904  1.00  0.00    -0.163 F 
HETATM   13  F   UNL     1      62.825   9.499   3.041  1.00  0.00    -0.163 F 
ENDBRANCH   1  10
TORSDOF 1
ENDMDL
MODEL 9
REMARK VINA RESULT:      -3.4      3.318      4.140
REMARK  1 active torsions:
REMARK  status: ('A' for Active; 'I' for Inactive)
REMARK    1  A    between atoms: C_1  and  C_6 
ROOT
HETATM    1  C   UNL     1      62.941   8.405   4.300  1.00  0.00     0.209 A 
HETATM    2  N   UNL     1      62.680   9.740   4.259  1.00  0.00    -0.308 N 
HETATM    3  N   UNL     1      62.703   7.793   3.163  1.00  0.00    -0.279 N 
ATOM      4  HN  UNL     1      62.823   6.802   2.955  1.00  0.00     0.188 HD
HETATM    5  C   UNL     1      62.232   9.985   2.980  1.00  0.00     0.194 A 
HETATM    6  N   UNL     1      62.261   8.769   2.326  1.00  0.00    -0.274 N 
HETATM    7  S   UNL     1      61.739  11.400   2.276  1.00  0.00    -0.039 SA
HETATM    8  C   UNL     1      62.837  10.762   5.283  1.00  0.00     0.160 C 
HETATM    9  H   UNL     1      61.998   8.628   1.387  1.00  0.00     0.189 HD
ENDROOT
BRANCH   1  10
HETATM   10  C   UNL     1      63.453   7.642   5.518  1.00  0.00     0.450 C 
HETATM   11  F   UNL     1      64.679   8.030   5.960  1.00  0.00    -0.163 F 
HETATM   12  F   UNL     1      62.619   7.773   6.588  1.00  0.00    -0.163 F 
HETATM   13  F   UNL     1      63.555   6.305   5.275  1.00  0.00    -0.163 F 
ENDBRANCH   1  10
TORSDOF 1
ENDMDL
