MODEL 1
REMARK VINA RESULT:      -4.3      0.000      0.000
REMARK  2 active torsions:
REMARK  status: ('A' for Active; 'I' for Inactive)
REMARK    1  A    between atoms: C_1  and  C_3 
REMARK    2  A    between atoms: C_1  and  N_4 
ROOT
HETATM    1  C   UNL     1      62.793   9.303   4.123  1.00  0.00     0.001 A 
HETATM    2  C   UNL     1      62.355  10.624   4.286  1.00  0.00     0.014 A 
HETATM    3  C   UNL     1      62.696   8.708   2.855  1.00  0.00     0.014 A 
HETATM    4  C   UNL     1      61.847  11.342   3.199  1.00  0.00     0.001 A 
HETATM    5  C   UNL     1      62.192   9.430   1.770  1.00  0.00     0.001 A 
HETATM    6  C   UNL     1      61.771  10.747   1.943  1.00  0.00     0.000 A 
ENDROOT
BRANCH   1   7
HETATM    7  C   UNL     1      63.357   8.532   5.270  1.00  0.00     0.104 C 
HETATM    8  S   UNL     1      62.591   7.285   6.081  1.00  0.00    -0.060 SA
BRANCH   7   9
HETATM    9  N   UNL     1      64.611   8.894   5.699  1.00  0.00    -0.390 N 
HETATM   10  H   UNL     1      65.256   8.202   5.972  1.00  0.00     0.157 HD
HETATM   11  H   UNL     1      64.863   9.845   5.734  1.00  0.00     0.157 HD
ENDBRANCH   7   9
ENDBRANCH   1   7
TORSDOF 2
ENDMDL
MODEL 2
REMARK VINA RESULT:      -4.3      0.052      1.610
REMARK  2 active torsions:
REMARK  status: ('A' for Active; 'I' for Inactive)
REMARK    1  A    between atoms: C_1  and  C_3 
REMARK    2  A    between atoms: C_1  and  N_4 
ROOT
HETATM    1  C   UNL     1      62.809   9.266   4.077  1.00  0.00     0.001 A 
HETATM    2  C   UNL     1      62.714   8.676   2.810  1.00  0.00     0.014 A 
HETATM    3  C   UNL     1      62.383  10.594   4.239  1.00  0.00     0.014 A 
HETATM    4  C   UNL     1      62.186   9.392   1.731  1.00  0.00     0.001 A 
HETATM    5  C   UNL     1      61.852  11.305   3.161  1.00  0.00     0.001 A 
HETATM    6  C   UNL     1      61.751  10.703   1.909  1.00  0.00     0.000 A 
ENDROOT
BRANCH   1   7
HETATM    7  C   UNL     1      63.350   8.506   5.242  1.00  0.00     0.104 C 
HETATM    8  S   UNL     1      62.567   7.270   6.053  1.00  0.00    -0.060 SA
BRANCH   7   9
HETATM    9  N   UNL     1      64.597   8.871   5.690  1.00  0.00    -0.390 N 
HETATM   10  H   UNL     1      64.898   8.595   6.586  1.00  0.00     0.157 HD
HETATM   11  H   UNL     1      65.188   9.408   5.115  1.00  0.00     0.157 HD
ENDBRANCH   7   9
ENDBRANCH   1   7
TORSDOF 2
ENDMDL
MODEL 3
REMARK VINA RESULT:      -3.9      1.471      1.471
REMARK  2 active torsions:
REMARK  status: ('A' for Active; 'I' for Inactive)
REMARK    1  A    between atoms: C_1  and  C_3 
REMARK    2  A    between atoms: C_1  and  N_4 
ROOT
HETATM    1  C   UNL     1      62.642   8.931   3.596  1.00  0.00     0.001 A 
HETATM    2  C   UNL     1      62.375  10.160   4.214  1.00  0.00     0.014 A 
HETATM    3  C   UNL     1      62.448   8.813   2.211  1.00  0.00     0.014 A 
HETATM    4  C   UNL     1      61.941  11.255   3.459  1.00  0.00     0.001 A 
HETATM    5  C   UNL     1      62.019   9.909   1.458  1.00  0.00     0.001 A 
HETATM    6  C   UNL     1      61.769  11.129   2.083  1.00  0.00     0.000 A 
ENDROOT
BRANCH   1   7
HETATM    7  C   UNL     1      63.125   7.761   4.386  1.00  0.00     0.104 C 
HETATM    8  S   UNL     1      64.438   7.756   5.424  1.00  0.00    -0.060 SA
BRANCH   7   9
HETATM    9  N   UNL     1      62.433   6.584   4.231  1.00  0.00    -0.390 N 
HETATM   10  H   UNL     1      61.854   6.255   4.956  1.00  0.00     0.157 HD
HETATM   11  H   UNL     1      62.517   6.071   3.396  1.00  0.00     0.157 HD
ENDBRANCH   7   9
ENDBRANCH   1   7
TORSDOF 2
ENDMDL
MODEL 4
REMARK VINA RESULT:      -3.9      1.064      1.075
REMARK  2 active torsions:
REMARK  status: ('A' for Active; 'I' for Inactive)
REMARK    1  A    between atoms: C_1  and  C_3 
REMARK    2  A    between atoms: C_1  and  N_4 
ROOT
HETATM    1  C   UNL     1      62.198   9.176   3.567  1.00  0.00     0.001 A 
HETATM    2  C   UNL     1      62.065  10.485   4.051  1.00  0.00     0.014 A 
HETATM    3  C   UNL     1      62.135   8.956   2.182  1.00  0.00     0.014 A 
HETATM    4  C   UNL     1      61.890  11.554   3.167  1.00  0.00     0.001 A 
HETATM    5  C   UNL     1      61.964  10.026   1.301  1.00  0.00     0.001 A 
HETATM    6  C   UNL     1      61.845  11.324   1.794  1.00  0.00     0.000 A 
ENDROOT
BRANCH   1   7
HETATM    7  C   UNL     1      62.406   8.029   4.499  1.00  0.00     0.104 C 
HETATM    8  S   UNL     1      61.464   6.648   4.576  1.00  0.00    -0.060 SA
BRANCH   7   9
HETATM    9  N   UNL     1      63.458   8.131   5.377  1.00  0.00    -0.390 N 
HETATM   10  H   UNL     1      63.461   7.597   6.204  1.00  0.00     0.157 HD
HETATM   11  H   UNL     1      64.208   8.737   5.179  1.00  0.00     0.157 HD
ENDBRANCH   7   9
ENDBRANCH   1   7
TORSDOF 2
ENDMDL
MODEL 5
REMARK VINA RESULT:      -3.8      2.931      3.642
REMARK  2 active torsions:
REMARK  status: ('A' for Active; 'I' for Inactive)
REMARK    1  A    between atoms: C_1  and  C_3 
REMARK    2  A    between atoms: C_1  and  N_4 
ROOT
HETATM    1  C   UNL     1      62.058   9.400   2.871  1.00  0.00     0.001 A 
HETATM    2  C   UNL     1      61.792  10.721   3.257  1.00  0.00     0.014 A 
HETATM    3  C   UNL     1      62.860   8.601   3.700  1.00  0.00     0.014 A 
HETATM    4  C   UNL     1      62.302  11.226   4.457  1.00  0.00     0.001 A 
HETATM    5  C   UNL     1      63.365   9.106   4.900  1.00  0.00     0.001 A 
HETATM    6  C   UNL     1      63.083  10.417   5.279  1.00  0.00     0.000 A 
ENDROOT
BRANCH   1   7
HETATM    7  C   UNL     1      61.503   8.842   1.602  1.00  0.00     0.104 C 
HETATM    8  S   UNL     1      62.399   8.269   0.311  1.00  0.00    -0.060 SA
BRANCH   7   9
HETATM    9  N   UNL     1      60.134   8.815   1.488  1.00  0.00    -0.390 N 
HETATM   10  H   UNL     1      59.572   8.997   2.276  1.00  0.00     0.157 HD
HETATM   11  H   UNL     1      59.717   8.613   0.620  1.00  0.00     0.157 HD
ENDBRANCH   7   9
ENDBRANCH   1   7
TORSDOF 2
ENDMDL
MODEL 6
REMARK VINA RESULT:      -3.6      2.709      3.662
REMARK  2 active torsions:
REMARK  status: ('A' for Active; 'I' for Inactive)
REMARK    1  A    between atoms: C_1  and  C_3 
REMARK    2  A    between atoms: C_1  and  N_4 
ROOT
HETATM    1  C   UNL     1      61.823   9.249   2.219  1.00  0.00     0.001 A 
HETATM    2  C   UNL     1      62.191   9.143   0.871  1.00  0.00     0.014 A 
HETATM    3  C   UNL     1      61.356   8.106   2.887  1.00  0.00     0.014 A 
HETATM    4  C   UNL     1      62.113   7.914   0.209  1.00  0.00     0.001 A 
HETATM    5  C   UNL     1      61.283   6.878   2.224  1.00  0.00     0.001 A 
HETATM    6  C   UNL     1      61.664   6.783   0.887  1.00  0.00     0.000 A 
ENDROOT
BRANCH   1   7
HETATM    7  C   UNL     1      61.922  10.551   2.944  1.00  0.00     0.104 C 
HETATM    8  S   UNL     1      62.403  10.750   4.534  1.00  0.00    -0.060 SA
BRANCH   7   9
HETATM    9  N   UNL     1      61.572  11.676   2.239  1.00  0.00    -0.390 N 
HETATM   10  H   UNL     1      61.505  12.544   2.700  1.00  0.00     0.157 HD
HETATM   11  H   UNL     1      61.387  11.616   1.274  1.00  0.00     0.157 HD
ENDBRANCH   7   9
ENDBRANCH   1   7
TORSDOF 2
ENDMDL
MODEL 7
REMARK VINA RESULT:      -3.5      2.504      3.177
REMARK  2 active torsions:
REMARK  status: ('A' for Active; 'I' for Inactive)
REMARK    1  A    between atoms: C_1  and  C_3 
REMARK    2  A    between atoms: C_1  and  N_4 
ROOT
HETATM    1  C   UNL     1      65.125   7.831   4.834  1.00  0.00     0.001 A 
HETATM    2  C   UNL     1      64.263   8.917   5.036  1.00  0.00     0.014 A 
HETATM    3  C   UNL     1      64.823   6.906   3.823  1.00  0.00     0.014 A 
HETATM    4  C   UNL     1      63.132   9.085   4.232  1.00  0.00     0.001 A 
HETATM    5  C   UNL     1      63.695   7.078   3.017  1.00  0.00     0.001 A 
HETATM    6  C   UNL     1      62.852   8.169   3.221  1.00  0.00     0.000 A 
ENDROOT
BRANCH   1   7
HETATM    7  C   UNL     1      66.348   7.652   5.672  1.00  0.00     0.104 C 
HETATM    8  S   UNL     1      67.551   6.518   5.416  1.00  0.00    -0.060 SA
BRANCH   7   9
HETATM    9  N   UNL     1      66.480   8.487   6.754  1.00  0.00    -0.390 N 
HETATM   10  H   UNL     1      66.990   8.192   7.544  1.00  0.00     0.157 HD
HETATM   11  H   UNL     1      66.066   9.380   6.741  1.00  0.00     0.157 HD
ENDBRANCH   7   9
ENDBRANCH   1   7
TORSDOF 2
ENDMDL
MODEL 8
REMARK VINA RESULT:      -3.4     12.602     13.858
REMARK  2 active torsions:
REMARK  status: ('A' for Active; 'I' for Inactive)
REMARK    1  A    between atoms: C_1  and  C_3 
REMARK    2  A    between atoms: C_1  and  N_4 
ROOT
HETATM    1  C   UNL     1      56.760   1.797  13.470  1.00  0.00     0.001 A 
HETATM    2  C   UNL     1      57.439   2.446  12.429  1.00  0.00     0.014 A 
HETATM    3  C   UNL     1      57.465   0.891  14.277  1.00  0.00     0.014 A 
HETATM    4  C   UNL     1      58.800   2.209  12.213  1.00  0.00     0.001 A 
HETATM    5  C   UNL     1      58.826   0.660  14.062  1.00  0.00     0.001 A 
HETATM    6  C   UNL     1      59.492   1.321  13.033  1.00  0.00     0.000 A 
ENDROOT
BRANCH   1   7
HETATM    7  C   UNL     1      55.312   2.057  13.724  1.00  0.00     0.104 C 
HETATM    8  S   UNL     1      54.036   1.424  12.846  1.00  0.00    -0.060 SA
BRANCH   7   9
HETATM    9  N   UNL     1      55.012   2.904  14.763  1.00  0.00    -0.390 N 
HETATM   10  H   UNL     1      54.373   3.641  14.628  1.00  0.00     0.157 HD
HETATM   11  H   UNL     1      55.435   2.774  15.642  1.00  0.00     0.157 HD
ENDBRANCH   7   9
ENDBRANCH   1   7
TORSDOF 2
ENDMDL
MODEL 9
REMARK VINA RESULT:      -3.2      2.937      3.953
REMARK  2 active torsions:
REMARK  status: ('A' for Active; 'I' for Inactive)
REMARK    1  A    between atoms: C_1  and  C_3 
REMARK    2  A    between atoms: C_1  and  N_4 
ROOT
HETATM    1  C   UNL     1      65.412   7.287   4.521  1.00  0.00     0.001 A 
HETATM    2  C   UNL     1      64.564   6.843   3.498  1.00  0.00     0.014 A 
HETATM    3  C   UNL     1      65.044   8.421   5.262  1.00  0.00     0.014 A 
HETATM    4  C   UNL     1      63.363   7.508   3.233  1.00  0.00     0.001 A 
HETATM    5  C   UNL     1      63.841   9.081   4.998  1.00  0.00     0.001 A 
HETATM    6  C   UNL     1      63.001   8.622   3.986  1.00  0.00     0.000 A 
ENDROOT
BRANCH   1   7
HETATM    7  C   UNL     1      66.687   6.574   4.828  1.00  0.00     0.104 C 
HETATM    8  S   UNL     1      67.324   6.322   6.355  1.00  0.00    -0.060 SA
BRANCH   7   9
HETATM    9  N   UNL     1      67.401   6.099   3.755  1.00  0.00    -0.390 N 
HETATM   10  H   UNL     1      68.216   6.567   3.461  1.00  0.00     0.157 HD
HETATM   11  H   UNL     1      67.098   5.291   3.281  1.00  0.00     0.157 HD
ENDBRANCH   7   9
ENDBRANCH   1   7
TORSDOF 2
ENDMDL
