MODEL 1
REMARK VINA RESULT:      -3.6      0.000      0.000
REMARK  0 active torsions:
REMARK  status: ('A' for Active; 'I' for Inactive)
ROOT
HETATM    1  C   UNL     1      62.750  10.792   5.241  1.00  0.00     0.179 C 
HETATM    2  N   UNL     1      63.234  11.202   6.211  1.00  0.00    -0.172 NA
HETATM    3  N   UNL     1      62.204  10.321   4.114  1.00  0.00    -0.320 N 
HETATM    4  C   UNL     1      61.889  11.144   2.919  1.00  0.00     0.134 C 
HETATM    5  C   UNL     1      62.157   8.891   3.731  1.00  0.00     0.134 C 
HETATM    6  C   UNL     1      62.446   8.895   2.242  1.00  0.00     0.022 C 
HETATM    7  C   UNL     1      61.786  10.171   1.750  1.00  0.00     0.022 C 
ENDROOT
TORSDOF 0
ENDMDL
MODEL 2
REMARK VINA RESULT:      -3.5      1.219      1.384
REMARK  0 active torsions:
REMARK  status: ('A' for Active; 'I' for Inactive)
ROOT
HETATM    1  C   UNL     1      62.800   9.351   4.956  1.00  0.00     0.179 C 
HETATM    2  N   UNL     1      63.365   8.910   5.867  1.00  0.00    -0.172 NA
HETATM    3  N   UNL     1      62.160   9.863   3.899  1.00  0.00    -0.320 N 
HETATM    4  C   UNL     1      62.016  11.315   3.621  1.00  0.00     0.134 C 
HETATM    5  C   UNL     1      61.811   9.109   2.673  1.00  0.00     0.134 C 
HETATM    6  C   UNL     1      62.085  10.084   1.545  1.00  0.00     0.022 C 
HETATM    7  C   UNL     1      61.703  11.431   2.133  1.00  0.00     0.022 C 
ENDROOT
TORSDOF 0
ENDMDL
MODEL 3
REMARK VINA RESULT:      -3.3      1.418      2.926
REMARK  0 active torsions:
REMARK  status: ('A' for Active; 'I' for Inactive)
ROOT
HETATM    1  C   UNL     1      61.873  11.195   2.835  1.00  0.00     0.179 C 
HETATM    2  N   UNL     1      61.795  12.012   2.016  1.00  0.00    -0.172 NA
HETATM    3  N   UNL     1      61.974  10.247   3.772  1.00  0.00    -0.320 N 
HETATM    4  C   UNL     1      61.574   8.828   3.586  1.00  0.00     0.134 C 
HETATM    5  C   UNL     1      62.808  10.347   4.992  1.00  0.00     0.134 C 
HETATM    6  C   UNL     1      63.411   8.964   5.146  1.00  0.00     0.022 C 
HETATM    7  C   UNL     1      62.312   8.036   4.659  1.00  0.00     0.022 C 
ENDROOT
TORSDOF 0
ENDMDL
MODEL 4
REMARK VINA RESULT:      -3.3      1.396      1.740
REMARK  0 active torsions:
REMARK  status: ('A' for Active; 'I' for Inactive)
ROOT
HETATM    1  C   UNL     1      61.933  10.868   3.637  1.00  0.00     0.179 C 
HETATM    2  N   UNL     1      62.032  11.822   4.288  1.00  0.00    -0.172 NA
HETATM    3  N   UNL     1      61.831   9.768   2.883  1.00  0.00    -0.320 N 
HETATM    4  C   UNL     1      61.916   9.749   1.400  1.00  0.00     0.134 C 
HETATM    5  C   UNL     1      61.980   8.382   3.383  1.00  0.00     0.134 C 
HETATM    6  C   UNL     1      62.767   7.676   2.296  1.00  0.00     0.022 C 
HETATM    7  C   UNL     1      62.265   8.316   1.015  1.00  0.00     0.022 C 
ENDROOT
TORSDOF 0
ENDMDL
MODEL 5
REMARK VINA RESULT:      -3.3      6.606      7.639
REMARK  0 active torsions:
REMARK  status: ('A' for Active; 'I' for Inactive)
ROOT
HETATM    1  C   UNL     1      66.362   7.813   6.745  1.00  0.00     0.179 C 
HETATM    2  N   UNL     1      66.069   8.774   6.167  1.00  0.00    -0.172 NA
HETATM    3  N   UNL     1      66.714   6.708   7.411  1.00  0.00    -0.320 N 
HETATM    4  C   UNL     1      67.449   5.562   6.818  1.00  0.00     0.134 C 
HETATM    5  C   UNL     1      66.761   6.588   8.886  1.00  0.00     0.134 C 
HETATM    6  C   UNL     1      68.013   5.777   9.155  1.00  0.00     0.022 C 
HETATM    7  C   UNL     1      68.072   4.808   7.988  1.00  0.00     0.022 C 
ENDROOT
TORSDOF 0
ENDMDL
MODEL 6
REMARK VINA RESULT:      -3.2      1.897      2.578
REMARK  0 active torsions:
REMARK  status: ('A' for Active; 'I' for Inactive)
ROOT
HETATM    1  C   UNL     1      62.861   8.237   5.893  1.00  0.00     0.179 C 
HETATM    2  N   UNL     1      62.855   7.430   6.725  1.00  0.00    -0.172 NA
HETATM    3  N   UNL     1      62.854   9.169   4.934  1.00  0.00    -0.320 N 
HETATM    4  C   UNL     1      62.333   8.962   3.558  1.00  0.00     0.134 C 
HETATM    5  C   UNL     1      63.016  10.623   5.165  1.00  0.00     0.134 C 
HETATM    6  C   UNL     1      62.024  11.264   4.214  1.00  0.00     0.022 C 
HETATM    7  C   UNL     1      62.046  10.352   3.001  1.00  0.00     0.022 C 
ENDROOT
TORSDOF 0
ENDMDL
MODEL 7
REMARK VINA RESULT:      -3.0      1.936      2.998
REMARK  0 active torsions:
REMARK  status: ('A' for Active; 'I' for Inactive)
ROOT
HETATM    1  C   UNL     1      60.812   7.938   3.607  1.00  0.00     0.179 C 
HETATM    2  N   UNL     1      60.198   7.029   3.982  1.00  0.00    -0.172 NA
HETATM    3  N   UNL     1      61.510   8.993   3.174  1.00  0.00    -0.320 N 
HETATM    4  C   UNL     1      61.496   9.500   1.778  1.00  0.00     0.134 C 
HETATM    5  C   UNL     1      62.109  10.028   4.048  1.00  0.00     0.134 C 
HETATM    6  C   UNL     1      61.856  11.330   3.311  1.00  0.00     0.022 C 
HETATM    7  C   UNL     1      61.979  10.945   1.848  1.00  0.00     0.022 C 
ENDROOT
TORSDOF 0
ENDMDL
MODEL 8
REMARK VINA RESULT:      -2.9     12.771     13.631
REMARK  0 active torsions:
REMARK  status: ('A' for Active; 'I' for Inactive)
ROOT
HETATM    1  C   UNL     1      55.998   2.731  12.564  1.00  0.00     0.179 C 
HETATM    2  N   UNL     1      55.048   3.358  12.345  1.00  0.00    -0.172 NA
HETATM    3  N   UNL     1      57.099   2.017  12.825  1.00  0.00    -0.320 N 
HETATM    4  C   UNL     1      58.452   2.326  12.295  1.00  0.00     0.134 C 
HETATM    5  C   UNL     1      57.236   1.048  13.937  1.00  0.00     0.134 C 
HETATM    6  C   UNL     1      58.639   1.280  14.463  1.00  0.00     0.022 C 
HETATM    7  C   UNL     1      59.439   1.619  13.217  1.00  0.00     0.022 C 
ENDROOT
TORSDOF 0
ENDMDL
MODEL 9
REMARK VINA RESULT:      -2.9      1.897      3.214
REMARK  0 active torsions:
REMARK  status: ('A' for Active; 'I' for Inactive)
ROOT
HETATM    1  C   UNL     1      63.405   7.755   3.401  1.00  0.00     0.179 C 
HETATM    2  N   UNL     1      63.968   6.838   2.971  1.00  0.00    -0.172 NA
HETATM    3  N   UNL     1      62.764   8.822   3.892  1.00  0.00    -0.320 N 
HETATM    4  C   UNL     1      63.267   9.675   4.999  1.00  0.00     0.134 C 
HETATM    5  C   UNL     1      61.662   9.536   3.207  1.00  0.00     0.134 C 
HETATM    6  C   UNL     1      61.942  11.001   3.479  1.00  0.00     0.022 C 
HETATM    7  C   UNL     1      62.528  11.002   4.879  1.00  0.00     0.022 C 
ENDROOT
TORSDOF 0
ENDMDL
