MODEL 1
REMARK VINA RESULT:      -3.5      0.000      0.000
REMARK  0 active torsions:
REMARK  status: ('A' for Active; 'I' for Inactive)
ROOT
HETATM    1  S   UNL     1      62.550   9.152   3.440  1.00  0.00    -0.066 SA
HETATM    2  C   UNL     1      62.014   9.654   1.913  1.00  0.00     0.076 A 
HETATM    3  C   UNL     1      62.361  10.722   4.051  1.00  0.00     0.076 A 
HETATM    4  C   UNL     1      61.702  10.989   1.853  1.00  0.00     0.033 A 
HETATM    5  C   UNL     1      61.908  11.622   3.118  1.00  0.00     0.033 A 
HETATM    6 CL   UNL     1      61.907   8.517   0.630  1.00  0.00    -0.076 Cl
HETATM    7 CL   UNL     1      62.729  11.048   5.696  1.00  0.00    -0.076 Cl
ENDROOT
TORSDOF 0
ENDMDL
MODEL 2
REMARK VINA RESULT:      -3.5      0.173      3.411
REMARK  0 active torsions:
REMARK  status: ('A' for Active; 'I' for Inactive)
ROOT
HETATM    1  S   UNL     1      62.677   9.034   3.442  1.00  0.00    -0.066 SA
HETATM    2  C   UNL     1      62.414  10.598   4.041  1.00  0.00     0.076 A 
HETATM    3  C   UNL     1      62.117   9.498   1.911  1.00  0.00     0.076 A 
HETATM    4  C   UNL     1      61.902  11.464   3.106  1.00  0.00     0.033 A 
HETATM    5  C   UNL     1      61.726  10.813   1.846  1.00  0.00     0.033 A 
HETATM    6 CL   UNL     1      62.787  10.959   5.678  1.00  0.00    -0.076 Cl
HETATM    7 CL   UNL     1      62.084   8.354   0.631  1.00  0.00    -0.076 Cl
ENDROOT
TORSDOF 0
ENDMDL
MODEL 3
REMARK VINA RESULT:      -3.3      1.164      1.396
REMARK  0 active torsions:
REMARK  status: ('A' for Active; 'I' for Inactive)
ROOT
HETATM    1  S   UNL     1      62.598   8.962   3.716  1.00  0.00    -0.066 SA
HETATM    2  C   UNL     1      62.423   8.488   2.098  1.00  0.00     0.076 A 
HETATM    3  C   UNL     1      62.152  10.550   3.325  1.00  0.00     0.076 A 
HETATM    4  C   UNL     1      62.040   9.511   1.265  1.00  0.00     0.033 A 
HETATM    5  C   UNL     1      61.881  10.731   1.991  1.00  0.00     0.033 A 
HETATM    6 CL   UNL     1      62.718   6.857   1.649  1.00  0.00    -0.076 Cl
HETATM    7 CL   UNL     1      62.077  11.743   4.558  1.00  0.00    -0.076 Cl
ENDROOT
TORSDOF 0
ENDMDL
MODEL 4
REMARK VINA RESULT:      -3.3      2.222      2.569
REMARK  0 active torsions:
REMARK  status: ('A' for Active; 'I' for Inactive)
ROOT
HETATM    1  S   UNL     1      62.273  10.437   4.309  1.00  0.00    -0.066 SA
HETATM    2  C   UNL     1      62.005  10.503   2.637  1.00  0.00     0.076 A 
HETATM    3  C   UNL     1      62.532   8.764   4.228  1.00  0.00     0.076 A 
HETATM    4  C   UNL     1      62.099   9.281   2.018  1.00  0.00     0.033 A 
HETATM    5  C   UNL     1      62.410   8.252   2.960  1.00  0.00     0.033 A 
HETATM    6 CL   UNL     1      61.656  12.008   1.886  1.00  0.00    -0.076 Cl
HETATM    7 CL   UNL     1      62.905   7.888   5.657  1.00  0.00    -0.076 Cl
ENDROOT
TORSDOF 0
ENDMDL
MODEL 5
REMARK VINA RESULT:      -3.3      2.371      2.895
REMARK  0 active torsions:
REMARK  status: ('A' for Active; 'I' for Inactive)
ROOT
HETATM    1  S   UNL     1      62.164   9.906   3.764  1.00  0.00    -0.066 SA
HETATM    2  C   UNL     1      62.450   8.325   3.222  1.00  0.00     0.076 A 
HETATM    3  C   UNL     1      61.959  10.442   2.169  1.00  0.00     0.076 A 
HETATM    4  C   UNL     1      62.401   8.196   1.856  1.00  0.00     0.033 A 
HETATM    5  C   UNL     1      62.111   9.449   1.233  1.00  0.00     0.033 A 
HETATM    6 CL   UNL     1      62.760   7.077   4.360  1.00  0.00    -0.076 Cl
HETATM    7 CL   UNL     1      61.596  12.092   1.863  1.00  0.00    -0.076 Cl
ENDROOT
TORSDOF 0
ENDMDL
MODEL 6
REMARK VINA RESULT:      -3.2      2.125      2.613
REMARK  0 active torsions:
REMARK  status: ('A' for Active; 'I' for Inactive)
ROOT
HETATM    1  S   UNL     1      62.459   9.144   3.243  1.00  0.00    -0.066 SA
HETATM    2  C   UNL     1      62.154  10.808   3.356  1.00  0.00     0.076 A 
HETATM    3  C   UNL     1      62.892   9.086   4.881  1.00  0.00     0.076 A 
HETATM    4  C   UNL     1      62.380  11.323   4.608  1.00  0.00     0.033 A 
HETATM    5  C   UNL     1      62.818  10.304   5.510  1.00  0.00     0.033 A 
HETATM    6 CL   UNL     1      61.614  11.672   1.974  1.00  0.00    -0.076 Cl
HETATM    7 CL   UNL     1      63.361   7.593   5.587  1.00  0.00    -0.076 Cl
ENDROOT
TORSDOF 0
ENDMDL
MODEL 7
REMARK VINA RESULT:      -2.9      1.514      3.544
REMARK  0 active torsions:
REMARK  status: ('A' for Active; 'I' for Inactive)
ROOT
HETATM    1  S   UNL     1      62.803   7.820   3.019  1.00  0.00    -0.066 SA
HETATM    2  C   UNL     1      62.550   8.816   4.366  1.00  0.00     0.076 A 
HETATM    3  C   UNL     1      62.314   9.064   1.976  1.00  0.00     0.076 A 
HETATM    4  C   UNL     1      62.095  10.070   4.044  1.00  0.00     0.033 A 
HETATM    5  C   UNL     1      61.955  10.217   2.629  1.00  0.00     0.033 A 
HETATM    6 CL   UNL     1      62.865   8.214   5.944  1.00  0.00    -0.076 Cl
HETATM    7 CL   UNL     1      62.308   8.802   0.279  1.00  0.00    -0.076 Cl
ENDROOT
TORSDOF 0
ENDMDL
MODEL 8
REMARK VINA RESULT:      -2.9      1.850      2.397
REMARK  0 active torsions:
REMARK  status: ('A' for Active; 'I' for Inactive)
ROOT
HETATM    1  S   UNL     1      62.125   9.872   3.386  1.00  0.00    -0.066 SA
HETATM    2  C   UNL     1      62.850   8.396   2.974  1.00  0.00     0.076 A 
HETATM    3  C   UNL     1      63.040   9.953   4.811  1.00  0.00     0.076 A 
HETATM    4  C   UNL     1      63.767   7.959   3.898  1.00  0.00     0.033 A 
HETATM    5  C   UNL     1      63.879   8.880   4.985  1.00  0.00     0.033 A 
HETATM    6 CL   UNL     1      62.409   7.606   1.514  1.00  0.00    -0.076 Cl
HETATM    7 CL   UNL     1      62.859  11.295   5.865  1.00  0.00    -0.076 Cl
ENDROOT
TORSDOF 0
ENDMDL
MODEL 9
REMARK VINA RESULT:      -2.7     14.273     14.966
REMARK  0 active torsions:
REMARK  status: ('A' for Active; 'I' for Inactive)
ROOT
HETATM    1  S   UNL     1      58.536  -0.752  13.346  1.00  0.00    -0.066 SA
HETATM    2  C   UNL     1      59.793   0.349  13.064  1.00  0.00     0.076 A 
HETATM    3  C   UNL     1      57.557   0.485  13.968  1.00  0.00     0.076 A 
HETATM    4  C   UNL     1      59.490   1.635  13.438  1.00  0.00     0.033 A 
HETATM    5  C   UNL     1      58.168   1.715  13.973  1.00  0.00     0.033 A 
HETATM    6 CL   UNL     1      61.266  -0.197  12.370  1.00  0.00    -0.076 Cl
HETATM    7 CL   UNL     1      55.969   0.125  14.510  1.00  0.00    -0.076 Cl
ENDROOT
TORSDOF 0
ENDMDL
