MODEL 1
REMARK VINA RESULT:      -4.8      0.000      0.000
REMARK  0 active torsions:
REMARK  status: ('A' for Active; 'I' for Inactive)
ROOT
HETATM    1  C   UNL     1      62.586   9.785   3.921  1.00  0.00     0.015 A 
HETATM    2  C   UNL     1      62.580  10.942   4.665  1.00  0.00     0.172 A 
HETATM    3  N   UNL     1      61.607  11.464   2.717  1.00  0.00    -0.263 N 
ATOM      4  HN  UNL     1      61.145  11.985   1.973  1.00  0.00     0.194 HD
HETATM    5  O   UNL     1      61.997  11.941   3.955  1.00  0.00    -0.220 OA
HETATM    6  C   UNL     1      61.964  10.172   2.700  1.00  0.00     0.039 A 
HETATM    7  N   UNL     1      63.023  11.237   5.892  1.00  0.00    -0.378 N 
HETATM    8  C   UNL     1      63.117   8.458   4.300  1.00  0.00     0.055 C 
HETATM    9  C   UNL     1      61.687   9.361   1.493  1.00  0.00     0.071 C 
HETATM   10  H   UNL     1      63.453  10.543   6.441  1.00  0.00     0.158 HD
HETATM   11  H   UNL     1      62.920  12.150   6.246  1.00  0.00     0.158 HD
ENDROOT
TORSDOF 0
ENDMDL
MODEL 2
REMARK VINA RESULT:      -4.3      0.817      2.642
REMARK  0 active torsions:
REMARK  status: ('A' for Active; 'I' for Inactive)
ROOT
HETATM    1  C   UNL     1      62.183   9.941   3.053  1.00  0.00     0.015 A 
HETATM    2  C   UNL     1      61.872  11.273   2.915  1.00  0.00     0.172 A 
HETATM    3  N   UNL     1      62.510  11.013   5.045  1.00  0.00    -0.263 N 
ATOM      4  HN  UNL     1      62.738  11.207   6.020  1.00  0.00     0.194 HD
HETATM    5  O   UNL     1      62.068  11.915   4.095  1.00  0.00    -0.220 OA
HETATM    6  C   UNL     1      62.576   9.832   4.417  1.00  0.00     0.039 A 
HETATM    7  N   UNL     1      61.435  12.004   1.883  1.00  0.00    -0.378 N 
HETATM    8  C   UNL     1      62.120   8.877   2.027  1.00  0.00     0.055 C 
HETATM    9  C   UNL     1      63.018   8.636   5.170  1.00  0.00     0.071 C 
HETATM   10  H   UNL     1      61.280  11.579   1.009  1.00  0.00     0.158 HD
HETATM   11  H   UNL     1      61.268  12.968   1.998  1.00  0.00     0.158 HD
ENDROOT
TORSDOF 0
ENDMDL
MODEL 3
REMARK VINA RESULT:      -4.2      1.698      2.049
REMARK  0 active torsions:
REMARK  status: ('A' for Active; 'I' for Inactive)
ROOT
HETATM    1  C   UNL     1      62.606   9.426   3.946  1.00  0.00     0.015 A 
HETATM    2  C   UNL     1      63.040   9.346   5.248  1.00  0.00     0.172 A 
HETATM    3  N   UNL     1      62.481  11.489   4.922  1.00  0.00    -0.263 N 
ATOM      4  HN  UNL     1      62.319  12.484   5.077  1.00  0.00     0.194 HD
HETATM    5  O   UNL     1      62.965  10.569   5.832  1.00  0.00    -0.220 OA
HETATM    6  C   UNL     1      62.269  10.800   3.792  1.00  0.00     0.039 A 
HETATM    7  N   UNL     1      63.498   8.335   5.995  1.00  0.00    -0.378 N 
HETATM    8  C   UNL     1      62.515   8.341   2.945  1.00  0.00     0.055 C 
HETATM    9  C   UNL     1      61.747  11.508   2.600  1.00  0.00     0.071 C 
HETATM   10  H   UNL     1      63.569   7.432   5.610  1.00  0.00     0.158 HD
HETATM   11  H   UNL     1      63.764   8.494   6.929  1.00  0.00     0.158 HD
ENDROOT
TORSDOF 0
ENDMDL
MODEL 4
REMARK VINA RESULT:      -4.0      2.211      2.918
REMARK  0 active torsions:
REMARK  status: ('A' for Active; 'I' for Inactive)
ROOT
HETATM    1  C   UNL     1      62.943   9.481   4.373  1.00  0.00     0.015 A 
HETATM    2  C   UNL     1      63.575  10.193   5.366  1.00  0.00     0.172 A 
HETATM    3  N   UNL     1      64.882   8.421   4.960  1.00  0.00    -0.263 N 
ATOM      4  HN  UNL     1      65.650   7.752   5.004  1.00  0.00     0.194 HD
HETATM    5  O   UNL     1      64.728   9.568   5.716  1.00  0.00    -0.220 OA
HETATM    6  C   UNL     1      63.809   8.371   4.158  1.00  0.00     0.039 A 
HETATM    7  N   UNL     1      63.268  11.324   6.010  1.00  0.00    -0.378 N 
HETATM    8  C   UNL     1      61.667   9.794   3.694  1.00  0.00     0.055 C 
HETATM    9  C   UNL     1      63.666   7.241   3.212  1.00  0.00     0.071 C 
HETATM   10  H   UNL     1      62.441  11.809   5.787  1.00  0.00     0.158 HD
HETATM   11  H   UNL     1      63.870  11.672   6.707  1.00  0.00     0.158 HD
ENDROOT
TORSDOF 0
ENDMDL
MODEL 5
REMARK VINA RESULT:      -3.8      3.566      4.419
REMARK  0 active torsions:
REMARK  status: ('A' for Active; 'I' for Inactive)
ROOT
HETATM    1  C   UNL     1      65.656   7.519   4.705  1.00  0.00     0.015 A 
HETATM    2  C   UNL     1      66.387   8.075   5.729  1.00  0.00     0.172 A 
HETATM    3  N   UNL     1      64.498   9.270   5.610  1.00  0.00    -0.263 N 
ATOM      4  HN  UNL     1      63.777   9.967   5.798  1.00  0.00     0.194 HD
HETATM    5  O   UNL     1      65.701   9.113   6.271  1.00  0.00    -0.220 OA
HETATM    6  C   UNL     1      64.476   8.314   4.671  1.00  0.00     0.039 A 
HETATM    7  N   UNL     1      67.585   7.789   6.251  1.00  0.00    -0.378 N 
HETATM    8  C   UNL     1      66.015   6.372   3.844  1.00  0.00     0.055 C 
HETATM    9  C   UNL     1      63.303   8.211   3.772  1.00  0.00     0.071 C 
HETATM   10  H   UNL     1      68.115   7.044   5.888  1.00  0.00     0.158 HD
HETATM   11  H   UNL     1      67.936   8.324   7.000  1.00  0.00     0.158 HD
ENDROOT
TORSDOF 0
ENDMDL
MODEL 6
REMARK VINA RESULT:      -3.7      4.788      5.776
REMARK  0 active torsions:
REMARK  status: ('A' for Active; 'I' for Inactive)
ROOT
HETATM    1  C   UNL     1      66.523   7.539   6.110  1.00  0.00     0.015 A 
HETATM    2  C   UNL     1      66.514   7.149   7.428  1.00  0.00     0.172 A 
HETATM    3  N   UNL     1      64.365   7.246   6.806  1.00  0.00    -0.263 N 
ATOM      4  HN  UNL     1      63.347   7.198   6.825  1.00  0.00     0.194 HD
HETATM    5  O   UNL     1      65.234   6.971   7.845  1.00  0.00    -0.220 OA
HETATM    6  C   UNL     1      65.141   7.588   5.769  1.00  0.00     0.039 A 
HETATM    7  N   UNL     1      67.487   6.929   8.319  1.00  0.00    -0.378 N 
HETATM    8  C   UNL     1      67.690   7.840   5.253  1.00  0.00     0.055 C 
HETATM    9  C   UNL     1      64.507   7.953   4.481  1.00  0.00     0.071 C 
HETATM   10  H   UNL     1      68.429   7.047   8.058  1.00  0.00     0.158 HD
HETATM   11  H   UNL     1      67.261   6.650   9.236  1.00  0.00     0.158 HD
ENDROOT
TORSDOF 0
ENDMDL
MODEL 7
REMARK VINA RESULT:      -3.7      6.214      7.118
REMARK  0 active torsions:
REMARK  status: ('A' for Active; 'I' for Inactive)
ROOT
HETATM    1  C   UNL     1      67.382   6.232   6.350  1.00  0.00     0.015 A 
HETATM    2  C   UNL     1      67.351   7.120   5.301  1.00  0.00     0.172 A 
HETATM    3  N   UNL     1      66.805   8.306   7.120  1.00  0.00    -0.263 N 
ATOM      4  HN  UNL     1      66.540   9.078   7.731  1.00  0.00     0.194 HD
HETATM    5  O   UNL     1      67.011   8.353   5.754  1.00  0.00    -0.220 OA
HETATM    6  C   UNL     1      67.026   7.032   7.473  1.00  0.00     0.039 A 
HETATM    7  N   UNL     1      67.581   6.988   3.990  1.00  0.00    -0.378 N 
HETATM    8  C   UNL     1      67.705   4.789   6.318  1.00  0.00     0.055 C 
HETATM    9  C   UNL     1      66.881   6.640   8.894  1.00  0.00     0.071 C 
HETATM   10  H   UNL     1      67.829   6.110   3.620  1.00  0.00     0.158 HD
HETATM   11  H   UNL     1      67.501   7.768   3.395  1.00  0.00     0.158 HD
ENDROOT
TORSDOF 0
ENDMDL
MODEL 8
REMARK VINA RESULT:      -3.5      1.952      3.065
REMARK  0 active torsions:
REMARK  status: ('A' for Active; 'I' for Inactive)
ROOT
HETATM    1  C   UNL     1      62.573  10.258   4.160  1.00  0.00     0.015 A 
HETATM    2  C   UNL     1      62.048  10.402   2.897  1.00  0.00     0.172 A 
HETATM    3  N   UNL     1      62.897   8.332   2.970  1.00  0.00    -0.263 N 
ATOM      4  HN  UNL     1      63.174   7.387   2.705  1.00  0.00     0.194 HD
HETATM    5  O   UNL     1      62.236   9.260   2.188  1.00  0.00    -0.220 OA
HETATM    6  C   UNL     1      63.100   8.935   4.150  1.00  0.00     0.039 A 
HETATM    7  N   UNL     1      61.423  11.413   2.282  1.00  0.00    -0.378 N 
HETATM    8  C   UNL     1      62.590  11.244   5.262  1.00  0.00     0.055 C 
HETATM    9  C   UNL     1      63.801   8.199   5.227  1.00  0.00     0.071 C 
HETATM   10  H   UNL     1      61.267  12.259   2.759  1.00  0.00     0.158 HD
HETATM   11  H   UNL     1      61.120  11.309   1.351  1.00  0.00     0.158 HD
ENDROOT
TORSDOF 0
ENDMDL
MODEL 9
REMARK VINA RESULT:      -3.5      3.609      4.901
REMARK  0 active torsions:
REMARK  status: ('A' for Active; 'I' for Inactive)
ROOT
HETATM    1  C   UNL     1      65.079   7.601   4.591  1.00  0.00     0.015 A 
HETATM    2  C   UNL     1      64.774   8.713   5.340  1.00  0.00     0.172 A 
HETATM    3  N   UNL     1      66.800   8.053   6.026  1.00  0.00    -0.263 N 
ATOM      4  HN  UNL     1      67.686   8.006   6.529  1.00  0.00     0.194 HD
HETATM    5  O   UNL     1      65.794   8.987   6.191  1.00  0.00    -0.220 OA
HETATM    6  C   UNL     1      66.366   7.223   5.068  1.00  0.00     0.039 A 
HETATM    7  N   UNL     1      63.710   9.523   5.374  1.00  0.00    -0.378 N 
HETATM    8  C   UNL     1      64.261   6.952   3.544  1.00  0.00     0.055 C 
HETATM    9  C   UNL     1      67.222   6.089   4.652  1.00  0.00     0.071 C 
HETATM   10  H   UNL     1      62.947   9.361   4.774  1.00  0.00     0.158 HD
HETATM   11  H   UNL     1      63.689  10.283   6.001  1.00  0.00     0.158 HD
ENDROOT
TORSDOF 0
ENDMDL
