MODEL 1
REMARK VINA RESULT:      -5.1      0.000      0.000
REMARK  1 active torsions:
REMARK  status: ('A' for Active; 'I' for Inactive)
REMARK    1  A    between atoms: C_1  and  C_2 
ROOT
HETATM    1  C   UNL     1      62.856   9.490   4.133  1.00  0.00     0.079 A 
HETATM    2  C   UNL     1      62.315  10.763   3.946  1.00  0.00     0.133 A 
HETATM    3  F   UNL     1      62.288  11.675   4.929  1.00  0.00    -0.205 F 
HETATM    4  C   UNL     1      62.853   8.586   3.060  1.00  0.00     0.021 A 
HETATM    5  C   UNL     1      61.777  11.132   2.712  1.00  0.00     0.043 A 
HETATM    6  C   UNL     1      62.315   8.955   1.824  1.00  0.00     0.001 A 
HETATM    7  C   UNL     1      61.776  10.229   1.650  1.00  0.00     0.003 A 
ENDROOT
BRANCH   1   8
HETATM    8  C   UNL     1      63.435   9.035   5.416  1.00  0.00     0.212 C 
HETATM    9  O   UNL     1      62.862   8.328   6.228  1.00  0.00    -0.644 OA
HETATM   10  O   UNL     1      64.684   9.466   5.642  1.00  0.00    -0.644 OA
ENDBRANCH   1   8
TORSDOF 1
ENDMDL
MODEL 2
REMARK VINA RESULT:      -4.9      1.848      2.330
REMARK  1 active torsions:
REMARK  status: ('A' for Active; 'I' for Inactive)
REMARK    1  A    between atoms: C_1  and  C_2 
ROOT
HETATM    1  C   UNL     1      62.350  10.052   3.495  1.00  0.00     0.079 A 
HETATM    2  C   UNL     1      61.985  10.415   2.198  1.00  0.00     0.133 A 
HETATM    3  F   UNL     1      61.638  11.671   1.883  1.00  0.00    -0.205 F 
HETATM    4  C   UNL     1      62.704   8.718   3.754  1.00  0.00     0.021 A 
HETATM    5  C   UNL     1      61.971   9.468   1.173  1.00  0.00     0.043 A 
HETATM    6  C   UNL     1      62.691   7.770   2.727  1.00  0.00     0.001 A 
HETATM    7  C   UNL     1      62.323   8.145   1.436  1.00  0.00     0.003 A 
ENDROOT
BRANCH   1   8
HETATM    8  C   UNL     1      62.380  11.004   4.627  1.00  0.00     0.212 C 
HETATM    9  O   UNL     1      61.899  12.125   4.608  1.00  0.00    -0.644 OA
HETATM   10  O   UNL     1      62.995  10.540   5.723  1.00  0.00    -0.644 OA
ENDBRANCH   1   8
TORSDOF 1
ENDMDL
MODEL 3
REMARK VINA RESULT:      -4.8      1.507      2.144
REMARK  1 active torsions:
REMARK  status: ('A' for Active; 'I' for Inactive)
REMARK    1  A    between atoms: C_1  and  C_2 
ROOT
HETATM    1  C   UNL     1      62.817   9.561   4.093  1.00  0.00     0.079 A 
HETATM    2  C   UNL     1      62.817   8.681   3.010  1.00  0.00     0.133 A 
HETATM    3  F   UNL     1      63.309   7.438   3.106  1.00  0.00    -0.205 F 
HETATM    4  C   UNL     1      62.283  10.849   3.923  1.00  0.00     0.021 A 
HETATM    5  C   UNL     1      62.296   9.072   1.776  1.00  0.00     0.043 A 
HETATM    6  C   UNL     1      61.761  11.241   2.687  1.00  0.00     0.001 A 
HETATM    7  C   UNL     1      61.768  10.352   1.613  1.00  0.00     0.003 A 
ENDROOT
BRANCH   1   8
HETATM    8  C   UNL     1      63.358   9.211   5.424  1.00  0.00     0.212 C 
HETATM    9  O   UNL     1      62.884   8.371   6.171  1.00  0.00    -0.644 OA
HETATM   10  O   UNL     1      64.450   9.904   5.777  1.00  0.00    -0.644 OA
ENDBRANCH   1   8
TORSDOF 1
ENDMDL
MODEL 4
REMARK VINA RESULT:      -4.7      1.939      2.588
REMARK  1 active torsions:
REMARK  status: ('A' for Active; 'I' for Inactive)
REMARK    1  A    between atoms: C_1  and  C_2 
ROOT
HETATM    1  C   UNL     1      62.467  10.143   3.810  1.00  0.00     0.079 A 
HETATM    2  C   UNL     1      62.962   8.843   3.918  1.00  0.00     0.133 A 
HETATM    3  F   UNL     1      63.500   8.379   5.054  1.00  0.00    -0.205 F 
HETATM    4  C   UNL     1      61.915  10.562   2.589  1.00  0.00     0.021 A 
HETATM    5  C   UNL     1      62.911   7.972   2.828  1.00  0.00     0.043 A 
HETATM    6  C   UNL     1      61.864   9.689   1.499  1.00  0.00     0.001 A 
HETATM    7  C   UNL     1      62.363   8.393   1.618  1.00  0.00     0.003 A 
ENDROOT
BRANCH   1   8
HETATM    8  C   UNL     1      62.495  11.117   4.923  1.00  0.00     0.212 C 
HETATM    9  O   UNL     1      63.019  10.921   6.007  1.00  0.00    -0.644 OA
HETATM   10  O   UNL     1      61.883  12.278   4.657  1.00  0.00    -0.644 OA
ENDBRANCH   1   8
TORSDOF 1
ENDMDL
MODEL 5
REMARK VINA RESULT:      -4.5      2.842      3.676
REMARK  1 active torsions:
REMARK  status: ('A' for Active; 'I' for Inactive)
REMARK    1  A    between atoms: C_1  and  C_2 
ROOT
HETATM    1  C   UNL     1      62.083   9.599   2.501  1.00  0.00     0.079 A 
HETATM    2  C   UNL     1      61.859  10.925   2.874  1.00  0.00     0.133 A 
HETATM    3  F   UNL     1      61.320  11.818   2.033  1.00  0.00    -0.205 F 
HETATM    4  C   UNL     1      62.650   8.716   3.434  1.00  0.00     0.021 A 
HETATM    5  C   UNL     1      62.194  11.368   4.154  1.00  0.00     0.043 A 
HETATM    6  C   UNL     1      62.985   9.160   4.716  1.00  0.00     0.001 A 
HETATM    7  C   UNL     1      62.758  10.487   5.076  1.00  0.00     0.003 A 
ENDROOT
BRANCH   1   8
HETATM    8  C   UNL     1      61.756   9.067   1.160  1.00  0.00     0.212 C 
HETATM    9  O   UNL     1      62.551   8.957   0.241  1.00  0.00    -0.644 OA
HETATM   10  O   UNL     1      60.477   8.699   1.009  1.00  0.00    -0.644 OA
ENDBRANCH   1   8
TORSDOF 1
ENDMDL
MODEL 6
REMARK VINA RESULT:      -4.3      2.420      3.278
REMARK  1 active torsions:
REMARK  status: ('A' for Active; 'I' for Inactive)
REMARK    1  A    between atoms: C_1  and  C_2 
ROOT
HETATM    1  C   UNL     1      62.106   9.883   3.837  1.00  0.00     0.079 A 
HETATM    2  C   UNL     1      63.014   9.449   4.804  1.00  0.00     0.133 A 
HETATM    3  F   UNL     1      63.839  10.297   5.433  1.00  0.00    -0.205 F 
HETATM    4  C   UNL     1      61.270   8.940   3.218  1.00  0.00     0.021 A 
HETATM    5  C   UNL     1      63.093   8.100   5.150  1.00  0.00     0.043 A 
HETATM    6  C   UNL     1      61.348   7.588   3.566  1.00  0.00     0.001 A 
HETATM    7  C   UNL     1      62.260   7.168   4.532  1.00  0.00     0.003 A 
ENDROOT
BRANCH   1   8
HETATM    8  C   UNL     1      61.977  11.296   3.420  1.00  0.00     0.212 C 
HETATM    9  O   UNL     1      62.006  11.688   2.265  1.00  0.00    -0.644 OA
HETATM   10  O   UNL     1      61.820  12.158   4.433  1.00  0.00    -0.644 OA
ENDBRANCH   1   8
TORSDOF 1
ENDMDL
MODEL 7
REMARK VINA RESULT:      -4.2      1.659      2.013
REMARK  1 active torsions:
REMARK  status: ('A' for Active; 'I' for Inactive)
REMARK    1  A    between atoms: C_1  and  C_2 
ROOT
HETATM    1  C   UNL     1      62.600   8.779   3.347  1.00  0.00     0.079 A 
HETATM    2  C   UNL     1      62.503   9.775   4.320  1.00  0.00     0.133 A 
HETATM    3  F   UNL     1      62.788   9.539   5.608  1.00  0.00    -0.205 F 
HETATM    4  C   UNL     1      62.288   9.097   2.015  1.00  0.00     0.021 A 
HETATM    5  C   UNL     1      62.099  11.066   3.977  1.00  0.00     0.043 A 
HETATM    6  C   UNL     1      61.884  10.390   1.672  1.00  0.00     0.001 A 
HETATM    7  C   UNL     1      61.788  11.375   2.653  1.00  0.00     0.003 A 
ENDROOT
BRANCH   1   8
HETATM    8  C   UNL     1      63.016   7.392   3.644  1.00  0.00     0.212 C 
HETATM    9  O   UNL     1      62.295   6.537   4.131  1.00  0.00    -0.644 OA
HETATM   10  O   UNL     1      64.291   7.118   3.334  1.00  0.00    -0.644 OA
ENDBRANCH   1   8
TORSDOF 1
ENDMDL
MODEL 8
REMARK VINA RESULT:      -4.1      3.049      3.966
REMARK  1 active torsions:
REMARK  status: ('A' for Active; 'I' for Inactive)
REMARK    1  A    between atoms: C_1  and  C_2 
ROOT
HETATM    1  C   UNL     1      62.143   9.489   2.585  1.00  0.00     0.079 A 
HETATM    2  C   UNL     1      62.912   8.682   3.426  1.00  0.00     0.133 A 
HETATM    3  F   UNL     1      63.301   7.451   3.066  1.00  0.00    -0.205 F 
HETATM    4  C   UNL     1      61.772  10.770   3.026  1.00  0.00     0.021 A 
HETATM    5  C   UNL     1      63.304   9.138   4.685  1.00  0.00     0.043 A 
HETATM    6  C   UNL     1      62.166  11.227   4.286  1.00  0.00     0.001 A 
HETATM    7  C   UNL     1      62.932  10.410   5.117  1.00  0.00     0.003 A 
ENDROOT
BRANCH   1   8
HETATM    8  C   UNL     1      61.690   9.065   1.243  1.00  0.00     0.212 C 
HETATM    9  O   UNL     1      60.563   8.682   0.977  1.00  0.00    -0.644 OA
HETATM   10  O   UNL     1      62.635   9.127   0.295  1.00  0.00    -0.644 OA
ENDBRANCH   1   8
TORSDOF 1
ENDMDL
MODEL 9
REMARK VINA RESULT:      -4.1      1.115      1.433
REMARK  1 active torsions:
REMARK  status: ('A' for Active; 'I' for Inactive)
REMARK    1  A    between atoms: C_1  and  C_2 
ROOT
HETATM    1  C   UNL     1      62.815   8.548   4.411  1.00  0.00     0.079 A 
HETATM    2  C   UNL     1      62.606   9.927   4.468  1.00  0.00     0.133 A 
HETATM    3  F   UNL     1      62.908  10.645   5.558  1.00  0.00    -0.205 F 
HETATM    4  C   UNL     1      62.478   7.857   3.236  1.00  0.00     0.021 A 
HETATM    5  C   UNL     1      62.070  10.609   3.375  1.00  0.00     0.043 A 
HETATM    6  C   UNL     1      61.942   8.541   2.141  1.00  0.00     0.001 A 
HETATM    7  C   UNL     1      61.737   9.918   2.212  1.00  0.00     0.003 A 
ENDROOT
BRANCH   1   8
HETATM    8  C   UNL     1      63.373   7.764   5.534  1.00  0.00     0.212 C 
HETATM    9  O   UNL     1      64.448   7.188   5.515  1.00  0.00    -0.644 OA
HETATM   10  O   UNL     1      62.591   7.722   6.621  1.00  0.00    -0.644 OA
ENDBRANCH   1   8
TORSDOF 1
ENDMDL
