MODEL 1
REMARK VINA RESULT:      -4.6      0.000      0.000
REMARK  1 active torsions:
REMARK  status: ('A' for Active; 'I' for Inactive)
REMARK    1  A    between atoms: C_8  and  O_10 
ROOT
HETATM    1  C   UNL     1      62.296  10.551   3.817  1.00  0.00     0.107 A 
HETATM    2  C   UNL     1      62.616  10.052   5.061  1.00  0.00     0.076 A 
HETATM    3  C   UNL     1      62.286   9.751   2.698  1.00  0.00     0.105 A 
HETATM    4  O   UNL     1      61.960  11.839   3.536  1.00  0.00    -0.323 OA
HETATM    5  O   UNL     1      61.942  10.437   1.574  1.00  0.00    -0.323 OA
HETATM    6  C   UNL     1      61.677  11.743   2.125  1.00  0.00     0.352 A 
HETATM    7  C   UNL     1      62.593   8.409   2.758  1.00  0.00     0.042 A 
HETATM    8  C   UNL     1      62.923   8.696   5.145  1.00  0.00     0.068 A 
HETATM    9  C   UNL     1      62.915   7.871   4.009  1.00  0.00     0.039 A 
ENDROOT
BRANCH   8  10
HETATM   10  O   UNL     1      63.230   8.193   6.375  1.00  0.00    -0.361 OA
HETATM   11  H   UNL     1      62.663   7.566   6.781  1.00  0.00     0.217 HD
ENDBRANCH   8  10
TORSDOF 1
ENDMDL
MODEL 2
REMARK VINA RESULT:      -4.5      1.749      3.711
REMARK  1 active torsions:
REMARK  status: ('A' for Active; 'I' for Inactive)
REMARK    1  A    between atoms: C_8  and  O_10 
ROOT
HETATM    1  C   UNL     1      64.149   9.118   5.065  1.00  0.00     0.107 A 
HETATM    2  C   UNL     1      63.127  10.034   4.936  1.00  0.00     0.076 A 
HETATM    3  C   UNL     1      64.236   8.014   4.250  1.00  0.00     0.105 A 
HETATM    4  O   UNL     1      65.163   9.177   5.969  1.00  0.00    -0.323 OA
HETATM    5  O   UNL     1      65.318   7.240   4.540  1.00  0.00    -0.323 OA
HETATM    6  C   UNL     1      65.932   8.017   5.589  1.00  0.00     0.352 A 
HETATM    7  C   UNL     1      63.310   7.762   3.260  1.00  0.00     0.042 A 
HETATM    8  C   UNL     1      62.184   9.803   3.937  1.00  0.00     0.068 A 
HETATM    9  C   UNL     1      62.266   8.679   3.099  1.00  0.00     0.039 A 
ENDROOT
BRANCH   8  10
HETATM   10  O   UNL     1      61.177  10.711   3.796  1.00  0.00    -0.361 OA
HETATM   11  H   UNL     1      61.361  11.569   3.469  1.00  0.00     0.217 HD
ENDBRANCH   8  10
TORSDOF 1
ENDMDL
MODEL 3
REMARK VINA RESULT:      -4.5      1.144      3.121
REMARK  1 active torsions:
REMARK  status: ('A' for Active; 'I' for Inactive)
REMARK    1  A    between atoms: C_8  and  O_10 
ROOT
HETATM    1  C   UNL     1      62.266  10.483   3.733  1.00  0.00     0.107 A 
HETATM    2  C   UNL     1      61.845  10.299   2.433  1.00  0.00     0.076 A 
HETATM    3  C   UNL     1      62.941   9.500   4.419  1.00  0.00     0.105 A 
HETATM    4  O   UNL     1      62.084  11.605   4.478  1.00  0.00    -0.323 OA
HETATM    5  O   UNL     1      63.268   9.883   5.683  1.00  0.00    -0.323 OA
HETATM    6  C   UNL     1      62.776  11.239   5.690  1.00  0.00     0.352 A 
HETATM    7  C   UNL     1      63.235   8.281   3.847  1.00  0.00     0.042 A 
HETATM    8  C   UNL     1      62.139   9.076   1.834  1.00  0.00     0.068 A 
HETATM    9  C   UNL     1      62.828   8.067   2.526  1.00  0.00     0.039 A 
ENDROOT
BRANCH   8  10
HETATM   10  O   UNL     1      61.735   8.891   0.544  1.00  0.00    -0.361 OA
HETATM   11  H   UNL     1      61.543   8.028   0.232  1.00  0.00     0.217 HD
ENDBRANCH   8  10
TORSDOF 1
ENDMDL
MODEL 4
REMARK VINA RESULT:      -4.5      1.456      3.032
REMARK  1 active torsions:
REMARK  status: ('A' for Active; 'I' for Inactive)
REMARK    1  A    between atoms: C_8  and  O_10 
ROOT
HETATM    1  C   UNL     1      62.859   9.635   4.242  1.00  0.00     0.107 A 
HETATM    2  C   UNL     1      63.059   8.472   3.528  1.00  0.00     0.076 A 
HETATM    3  C   UNL     1      62.224  10.722   3.688  1.00  0.00     0.105 A 
HETATM    4  O   UNL     1      63.240   9.856   5.528  1.00  0.00    -0.323 OA
HETATM    5  O   UNL     1      62.126  11.763   4.559  1.00  0.00    -0.323 OA
HETATM    6  C   UNL     1      62.717  11.184   5.741  1.00  0.00     0.352 A 
HETATM    7  C   UNL     1      61.752  10.710   2.393  1.00  0.00     0.042 A 
HETATM    8  C   UNL     1      62.583   8.437   2.219  1.00  0.00     0.068 A 
HETATM    9  C   UNL     1      61.933   9.542   1.646  1.00  0.00     0.039 A 
ENDROOT
BRANCH   8  10
HETATM   10  O   UNL     1      62.768   7.286   1.511  1.00  0.00    -0.361 OA
HETATM   11  H   UNL     1      63.613   6.882   1.485  1.00  0.00     0.217 HD
ENDBRANCH   8  10
TORSDOF 1
ENDMDL
MODEL 5
REMARK VINA RESULT:      -4.5      1.505      3.294
REMARK  1 active torsions:
REMARK  status: ('A' for Active; 'I' for Inactive)
REMARK    1  A    between atoms: C_8  and  O_10 
ROOT
HETATM    1  C   UNL     1      62.522   8.886   3.481  1.00  0.00     0.107 A 
HETATM    2  C   UNL     1      62.420  10.016   4.264  1.00  0.00     0.076 A 
HETATM    3  C   UNL     1      62.273   8.919   2.128  1.00  0.00     0.105 A 
HETATM    4  O   UNL     1      62.867   7.644   3.914  1.00  0.00    -0.323 OA
HETATM    5  O   UNL     1      62.431   7.701   1.542  1.00  0.00    -0.323 OA
HETATM    6  C   UNL     1      62.867   6.914   2.670  1.00  0.00     0.352 A 
HETATM    7  C   UNL     1      61.911  10.082   1.481  1.00  0.00     0.042 A 
HETATM    8  C   UNL     1      62.062  11.203   3.628  1.00  0.00     0.068 A 
HETATM    9  C   UNL     1      61.808  11.247   2.248  1.00  0.00     0.039 A 
ENDROOT
BRANCH   8  10
HETATM   10  O   UNL     1      61.970  12.327   4.395  1.00  0.00    -0.361 OA
HETATM   11  H   UNL     1      62.520  13.065   4.214  1.00  0.00     0.217 HD
ENDBRANCH   8  10
TORSDOF 1
ENDMDL
MODEL 6
REMARK VINA RESULT:      -4.3      1.575      4.061
REMARK  1 active torsions:
REMARK  status: ('A' for Active; 'I' for Inactive)
REMARK    1  A    between atoms: C_8  and  O_10 
ROOT
HETATM    1  C   UNL     1      63.826   8.456   4.109  1.00  0.00     0.107 A 
HETATM    2  C   UNL     1      62.847   8.453   3.140  1.00  0.00     0.076 A 
HETATM    3  C   UNL     1      63.910   9.457   5.049  1.00  0.00     0.105 A 
HETATM    4  O   UNL     1      64.796   7.516   4.265  1.00  0.00    -0.323 OA
HETATM    5  O   UNL     1      64.944   9.271   5.914  1.00  0.00    -0.323 OA
HETATM    6  C   UNL     1      65.461   8.007   5.448  1.00  0.00     0.352 A 
HETATM    7  C   UNL     1      63.020  10.510   5.074  1.00  0.00     0.042 A 
HETATM    8  C   UNL     1      61.932   9.505   3.152  1.00  0.00     0.068 A 
HETATM    9  C   UNL     1      62.009  10.531   4.108  1.00  0.00     0.039 A 
ENDROOT
BRANCH   8  10
HETATM   10  O   UNL     1      60.954   9.502   2.203  1.00  0.00    -0.361 OA
HETATM   11  H   UNL     1      61.068   9.990   1.410  1.00  0.00     0.217 HD
ENDBRANCH   8  10
TORSDOF 1
ENDMDL
MODEL 7
REMARK VINA RESULT:      -4.0      1.767      3.953
REMARK  1 active torsions:
REMARK  status: ('A' for Active; 'I' for Inactive)
REMARK    1  A    between atoms: C_8  and  O_10 
ROOT
HETATM    1  C   UNL     1      62.003   8.575   2.031  1.00  0.00     0.107 A 
HETATM    2  C   UNL     1      61.924   9.836   1.479  1.00  0.00     0.076 A 
HETATM    3  C   UNL     1      62.123   8.387   3.388  1.00  0.00     0.105 A 
HETATM    4  O   UNL     1      61.974   7.401   1.345  1.00  0.00    -0.323 OA
HETATM    5  O   UNL     1      62.183   7.069   3.725  1.00  0.00    -0.323 OA
HETATM    6  C   UNL     1      62.026   6.452   2.430  1.00  0.00     0.352 A 
HETATM    7  C   UNL     1      62.168   9.445   4.270  1.00  0.00     0.042 A 
HETATM    8  C   UNL     1      61.960  10.919   2.355  1.00  0.00     0.068 A 
HETATM    9  C   UNL     1      62.081  10.737   3.741  1.00  0.00     0.039 A 
ENDROOT
BRANCH   8  10
HETATM   10  O   UNL     1      61.871  12.169   1.816  1.00  0.00    -0.361 OA
HETATM   11  H   UNL     1      61.261  12.788   2.167  1.00  0.00     0.217 HD
ENDBRANCH   8  10
TORSDOF 1
ENDMDL
MODEL 8
REMARK VINA RESULT:      -4.0      1.145      2.304
REMARK  1 active torsions:
REMARK  status: ('A' for Active; 'I' for Inactive)
REMARK    1  A    between atoms: C_8  and  O_10 
ROOT
HETATM    1  C   UNL     1      62.799   8.633   2.840  1.00  0.00     0.107 A 
HETATM    2  C   UNL     1      63.495   8.117   3.911  1.00  0.00     0.076 A 
HETATM    3  C   UNL     1      62.170   9.854   2.908  1.00  0.00     0.105 A 
HETATM    4  O   UNL     1      62.646   8.038   1.627  1.00  0.00    -0.323 OA
HETATM    5  O   UNL     1      61.543  10.180   1.745  1.00  0.00    -0.323 OA
HETATM    6  C   UNL     1      61.903   9.052   0.920  1.00  0.00     0.352 A 
HETATM    7  C   UNL     1      62.202  10.629   4.047  1.00  0.00     0.042 A 
HETATM    8  C   UNL     1      63.546   8.888   5.071  1.00  0.00     0.068 A 
HETATM    9  C   UNL     1      62.908  10.136   5.150  1.00  0.00     0.039 A 
ENDROOT
BRANCH   8  10
HETATM   10  O   UNL     1      64.243   8.388   6.132  1.00  0.00    -0.361 OA
HETATM   11  H   UNL     1      63.944   7.613   6.566  1.00  0.00     0.217 HD
ENDBRANCH   8  10
TORSDOF 1
ENDMDL
MODEL 9
REMARK VINA RESULT:      -3.8      5.578      7.636
REMARK  1 active torsions:
REMARK  status: ('A' for Active; 'I' for Inactive)
REMARK    1  A    between atoms: C_8  and  O_10 
ROOT
HETATM    1  C   UNL     1      66.742   5.589   7.724  1.00  0.00     0.107 A 
HETATM    2  C   UNL     1      66.312   6.899   7.703  1.00  0.00     0.076 A 
HETATM    3  C   UNL     1      67.390   5.024   6.650  1.00  0.00     0.105 A 
HETATM    4  O   UNL     1      66.596   4.719   8.758  1.00  0.00    -0.323 OA
HETATM    5  O   UNL     1      67.732   3.727   6.875  1.00  0.00    -0.323 OA
HETATM    6  C   UNL     1      67.281   3.561   8.236  1.00  0.00     0.352 A 
HETATM    7  C   UNL     1      67.646   5.734   5.496  1.00  0.00     0.042 A 
HETATM    8  C   UNL     1      66.567   7.636   6.548  1.00  0.00     0.068 A 
HETATM    9  C   UNL     1      67.228   7.068   5.447  1.00  0.00     0.039 A 
ENDROOT
BRANCH   8  10
HETATM   10  O   UNL     1      66.154   8.936   6.525  1.00  0.00    -0.361 OA
HETATM   11  H   UNL     1      65.579   9.233   5.846  1.00  0.00     0.217 HD
ENDBRANCH   8  10
TORSDOF 1
ENDMDL
