MODEL 1
REMARK VINA RESULT:      -5.2      0.000      0.000
REMARK  2 active torsions:
REMARK  status: ('A' for Active; 'I' for Inactive)
REMARK    1  A    between atoms: C_1  and  C_2 
REMARK    2  A    between atoms: C_8  and  N_9 
ROOT
HETATM    1  C   UNL     1      62.265   9.465   2.748  1.00  0.00     0.048 A 
HETATM    2  C   UNL     1      63.041   8.791   3.700  1.00  0.00     0.018 A 
HETATM    3  C   UNL     1      61.837  10.769   3.035  1.00  0.00     0.018 A 
HETATM    4  C   UNL     1      62.905  10.687   5.216  1.00  0.00     0.025 A 
HETATM    5  C   UNL     1      62.174  11.379   4.248  1.00  0.00     0.030 A 
HETATM    6  C   UNL     1      63.374   9.408   4.910  1.00  0.00     0.030 A 
ENDROOT
BRANCH   1   7
HETATM    7  C   UNL     1      61.913   8.827   1.429  1.00  0.00     0.417 C 
HETATM    8  F   UNL     1      62.160   7.488   1.385  1.00  0.00    -0.166 F 
HETATM    9  F   UNL     1      62.604   9.366   0.387  1.00  0.00    -0.166 F 
HETATM   10  F   UNL     1      60.594   8.970   1.116  1.00  0.00    -0.166 F 
ENDBRANCH   1   7
BRANCH   4  11
HETATM   11  N   UNL     1      63.355  11.348   6.364  1.00  0.00    -0.399 N 
HETATM   12  H   UNL     1      62.731  11.536   7.102  1.00  0.00     0.156 HD
HETATM   13  H   UNL     1      64.298  11.625   6.434  1.00  0.00     0.156 HD
ENDBRANCH   4  11
TORSDOF 2
ENDMDL
MODEL 2
REMARK VINA RESULT:      -4.6      1.581      2.033
REMARK  2 active torsions:
REMARK  status: ('A' for Active; 'I' for Inactive)
REMARK    1  A    between atoms: C_1  and  C_2 
REMARK    2  A    between atoms: C_8  and  N_9 
ROOT
HETATM    1  C   UNL     1      62.496   9.107   2.784  1.00  0.00     0.048 A 
HETATM    2  C   UNL     1      63.091   7.839   2.841  1.00  0.00     0.018 A 
HETATM    3  C   UNL     1      62.437   9.871   3.958  1.00  0.00     0.018 A 
HETATM    4  C   UNL     1      63.501   8.091   5.223  1.00  0.00     0.025 A 
HETATM    5  C   UNL     1      62.955   9.375   5.158  1.00  0.00     0.030 A 
HETATM    6  C   UNL     1      63.607   7.350   4.045  1.00  0.00     0.030 A 
ENDROOT
BRANCH   1   7
HETATM    7  C   UNL     1      61.953   9.661   1.492  1.00  0.00     0.417 C 
HETATM    8  F   UNL     1      62.681   9.308   0.395  1.00  0.00    -0.166 F 
HETATM    9  F   UNL     1      61.910  11.022   1.485  1.00  0.00    -0.166 F 
HETATM   10  F   UNL     1      60.679   9.246   1.241  1.00  0.00    -0.166 F 
ENDBRANCH   1   7
BRANCH   4  11
HETATM   11  N   UNL     1      64.141   7.657   6.390  1.00  0.00    -0.399 N 
HETATM   12  H   UNL     1      64.952   8.115   6.707  1.00  0.00     0.156 HD
HETATM   13  H   UNL     1      63.778   6.892   6.893  1.00  0.00     0.156 HD
ENDBRANCH   4  11
TORSDOF 2
ENDMDL
MODEL 3
REMARK VINA RESULT:      -4.5      3.146      4.066
REMARK  2 active torsions:
REMARK  status: ('A' for Active; 'I' for Inactive)
REMARK    1  A    between atoms: C_1  and  C_2 
REMARK    2  A    between atoms: C_8  and  N_9 
ROOT
HETATM    1  C   UNL     1      63.322   8.652   4.741  1.00  0.00     0.048 A 
HETATM    2  C   UNL     1      63.022   9.935   5.218  1.00  0.00     0.018 A 
HETATM    3  C   UNL     1      62.965   8.326   3.425  1.00  0.00     0.018 A 
HETATM    4  C   UNL     1      61.974  10.521   3.104  1.00  0.00     0.025 A 
HETATM    5  C   UNL     1      62.318   9.261   2.611  1.00  0.00     0.030 A 
HETATM    6  C   UNL     1      62.375  10.864   4.397  1.00  0.00     0.030 A 
ENDROOT
BRANCH   1   7
HETATM    7  C   UNL     1      64.038   7.643   5.603  1.00  0.00     0.417 C 
HETATM    8  F   UNL     1      65.244   8.075   6.066  1.00  0.00    -0.166 F 
HETATM    9  F   UNL     1      64.289   6.478   4.943  1.00  0.00    -0.166 F 
HETATM   10  F   UNL     1      63.319   7.298   6.708  1.00  0.00    -0.166 F 
ENDBRANCH   1   7
BRANCH   4  11
HETATM   11  N   UNL     1      61.454  11.496   2.245  1.00  0.00    -0.399 N 
HETATM   12  H   UNL     1      62.035  11.922   1.574  1.00  0.00     0.156 HD
HETATM   13  H   UNL     1      60.506  11.754   2.312  1.00  0.00     0.156 HD
ENDBRANCH   4  11
TORSDOF 2
ENDMDL
MODEL 4
REMARK VINA RESULT:      -4.4      2.972      3.788
REMARK  2 active torsions:
REMARK  status: ('A' for Active; 'I' for Inactive)
REMARK    1  A    between atoms: C_1  and  C_2 
REMARK    2  A    between atoms: C_8  and  N_9 
ROOT
HETATM    1  C   UNL     1      62.934   8.877   4.494  1.00  0.00     0.048 A 
HETATM    2  C   UNL     1      62.647   8.614   3.148  1.00  0.00     0.018 A 
HETATM    3  C   UNL     1      62.702  10.168   4.989  1.00  0.00     0.018 A 
HETATM    4  C   UNL     1      61.964  10.921   2.800  1.00  0.00     0.025 A 
HETATM    5  C   UNL     1      62.201  11.171   4.153  1.00  0.00     0.030 A 
HETATM    6  C   UNL     1      62.146   9.623   2.319  1.00  0.00     0.030 A 
ENDROOT
BRANCH   1   7
HETATM    7  C   UNL     1      63.454   7.798   5.410  1.00  0.00     0.417 C 
HETATM    8  F   UNL     1      64.775   7.932   5.720  1.00  0.00    -0.166 F 
HETATM    9  F   UNL     1      63.323   6.552   4.876  1.00  0.00    -0.166 F 
HETATM   10  F   UNL     1      62.795   7.764   6.603  1.00  0.00    -0.166 F 
ENDBRANCH   1   7
BRANCH   4  11
HETATM   11  N   UNL     1      61.335  11.886   2.005  1.00  0.00    -0.399 N 
HETATM   12  H   UNL     1      61.714  12.792   1.937  1.00  0.00     0.156 HD
HETATM   13  H   UNL     1      60.512  11.658   1.515  1.00  0.00     0.156 HD
ENDBRANCH   4  11
TORSDOF 2
ENDMDL
MODEL 5
REMARK VINA RESULT:      -4.1      2.928      3.778
REMARK  2 active torsions:
REMARK  status: ('A' for Active; 'I' for Inactive)
REMARK    1  A    between atoms: C_1  and  C_2 
REMARK    2  A    between atoms: C_8  and  N_9 
ROOT
HETATM    1  C   UNL     1      63.171   9.004   3.983  1.00  0.00     0.048 A 
HETATM    2  C   UNL     1      63.231   7.881   3.147  1.00  0.00     0.018 A 
HETATM    3  C   UNL     1      64.115   9.123   5.013  1.00  0.00     0.018 A 
HETATM    4  C   UNL     1      65.116   6.995   4.401  1.00  0.00     0.025 A 
HETATM    5  C   UNL     1      65.090   8.138   5.203  1.00  0.00     0.030 A 
HETATM    6  C   UNL     1      64.209   6.901   3.343  1.00  0.00     0.030 A 
ENDROOT
BRANCH   1   7
HETATM    7  C   UNL     1      62.138  10.082   3.775  1.00  0.00     0.417 C 
HETATM    8  F   UNL     1      62.230  11.108   4.667  1.00  0.00    -0.166 F 
HETATM    9  F   UNL     1      60.864   9.611   3.881  1.00  0.00    -0.166 F 
HETATM   10  F   UNL     1      62.223  10.654   2.541  1.00  0.00    -0.166 F 
ENDBRANCH   1   7
BRANCH   4  11
HETATM   11  N   UNL     1      66.174   6.085   4.506  1.00  0.00    -0.399 N 
HETATM   12  H   UNL     1      66.760   5.920   3.732  1.00  0.00     0.156 HD
HETATM   13  H   UNL     1      66.331   5.610   5.354  1.00  0.00     0.156 HD
ENDBRANCH   4  11
TORSDOF 2
ENDMDL
MODEL 6
REMARK VINA RESULT:      -4.0      2.977      3.734
REMARK  2 active torsions:
REMARK  status: ('A' for Active; 'I' for Inactive)
REMARK    1  A    between atoms: C_1  and  C_2 
REMARK    2  A    between atoms: C_8  and  N_9 
ROOT
HETATM    1  C   UNL     1      63.194   8.936   3.936  1.00  0.00     0.048 A 
HETATM    2  C   UNL     1      64.166   9.014   4.943  1.00  0.00     0.018 A 
HETATM    3  C   UNL     1      63.208   7.830   3.076  1.00  0.00     0.018 A 
HETATM    4  C   UNL     1      65.175   6.935   4.189  1.00  0.00     0.025 A 
HETATM    5  C   UNL     1      64.176   6.830   3.218  1.00  0.00     0.030 A 
HETATM    6  C   UNL     1      65.130   8.011   5.078  1.00  0.00     0.030 A 
ENDROOT
BRANCH   1   7
HETATM    7  C   UNL     1      62.134   9.997   3.787  1.00  0.00     0.417 C 
HETATM    8  F   UNL     1      60.862   9.506   3.796  1.00  0.00    -0.166 F 
HETATM    9  F   UNL     1      62.253  10.694   2.623  1.00  0.00    -0.166 F 
HETATM   10  F   UNL     1      62.180  10.925   4.784  1.00  0.00    -0.166 F 
ENDBRANCH   1   7
BRANCH   4  11
HETATM   11  N   UNL     1      66.052   5.869   4.414  1.00  0.00    -0.399 N 
HETATM   12  H   UNL     1      65.698   4.962   4.564  1.00  0.00     0.156 HD
HETATM   13  H   UNL     1      67.024   6.026   4.425  1.00  0.00     0.156 HD
ENDBRANCH   4  11
TORSDOF 2
ENDMDL
MODEL 7
REMARK VINA RESULT:      -3.9      3.548      4.494
REMARK  2 active torsions:
REMARK  status: ('A' for Active; 'I' for Inactive)
REMARK    1  A    between atoms: C_1  and  C_2 
REMARK    2  A    between atoms: C_8  and  N_9 
ROOT
HETATM    1  C   UNL     1      62.162   8.997   3.611  1.00  0.00     0.048 A 
HETATM    2  C   UNL     1      62.310   9.626   2.368  1.00  0.00     0.018 A 
HETATM    3  C   UNL     1      61.189   7.997   3.744  1.00  0.00     0.018 A 
HETATM    4  C   UNL     1      60.495   8.305   1.436  1.00  0.00     0.025 A 
HETATM    5  C   UNL     1      60.380   7.642   2.659  1.00  0.00     0.030 A 
HETATM    6  C   UNL     1      61.498   9.265   1.288  1.00  0.00     0.030 A 
ENDROOT
BRANCH   1   7
HETATM    7  C   UNL     1      63.041   9.357   4.782  1.00  0.00     0.417 C 
HETATM    8  F   UNL     1      64.357   9.057   4.591  1.00  0.00    -0.166 F 
HETATM    9  F   UNL     1      62.676   8.714   5.926  1.00  0.00    -0.166 F 
HETATM   10  F   UNL     1      63.003  10.688   5.073  1.00  0.00    -0.166 F 
ENDBRANCH   1   7
BRANCH   4  11
HETATM   11  N   UNL     1      59.782   7.853   0.320  1.00  0.00    -0.399 N 
HETATM   12  H   UNL     1      58.960   7.324   0.441  1.00  0.00     0.156 HD
HETATM   13  H   UNL     1      60.104   8.062  -0.586  1.00  0.00     0.156 HD
ENDBRANCH   4  11
TORSDOF 2
ENDMDL
MODEL 8
REMARK VINA RESULT:      -3.9      6.622      7.710
REMARK  2 active torsions:
REMARK  status: ('A' for Active; 'I' for Inactive)
REMARK    1  A    between atoms: C_1  and  C_2 
REMARK    2  A    between atoms: C_8  and  N_9 
ROOT
HETATM    1  C   UNL     1      67.063   6.665   6.901  1.00  0.00     0.048 A 
HETATM    2  C   UNL     1      67.397   5.475   6.241  1.00  0.00     0.018 A 
HETATM    3  C   UNL     1      66.841   6.624   8.284  1.00  0.00     0.018 A 
HETATM    4  C   UNL     1      67.226   4.225   8.319  1.00  0.00     0.025 A 
HETATM    5  C   UNL     1      66.944   5.419   8.987  1.00  0.00     0.030 A 
HETATM    6  C   UNL     1      67.498   4.274   6.950  1.00  0.00     0.030 A 
ENDROOT
BRANCH   1   7
HETATM    7  C   UNL     1      66.970   7.973   6.158  1.00  0.00     0.417 C 
HETATM    8  F   UNL     1      65.911   8.044   5.303  1.00  0.00    -0.166 F 
HETATM    9  F   UNL     1      68.074   8.224   5.402  1.00  0.00    -0.166 F 
HETATM   10  F   UNL     1      66.841   9.041   6.996  1.00  0.00    -0.166 F 
ENDBRANCH   1   7
BRANCH   4  11
HETATM   11  N   UNL     1      67.463   3.052   9.044  1.00  0.00    -0.399 N 
HETATM   12  H   UNL     1      68.387   2.749   9.203  1.00  0.00     0.156 HD
HETATM   13  H   UNL     1      66.706   2.529   9.394  1.00  0.00     0.156 HD
ENDBRANCH   4  11
TORSDOF 2
ENDMDL
MODEL 9
REMARK VINA RESULT:      -3.6      3.692      4.707
REMARK  2 active torsions:
REMARK  status: ('A' for Active; 'I' for Inactive)
REMARK    1  A    between atoms: C_1  and  C_2 
REMARK    2  A    between atoms: C_8  and  N_9 
ROOT
HETATM    1  C   UNL     1      64.434   7.579   5.480  1.00  0.00     0.048 A 
HETATM    2  C   UNL     1      64.323   6.611   6.487  1.00  0.00     0.018 A 
HETATM    3  C   UNL     1      65.620   8.321   5.391  1.00  0.00     0.018 A 
HETATM    4  C   UNL     1      66.534   7.172   7.327  1.00  0.00     0.025 A 
HETATM    5  C   UNL     1      66.666   8.102   6.293  1.00  0.00     0.030 A 
HETATM    6  C   UNL     1      65.374   6.398   7.385  1.00  0.00     0.030 A 
ENDROOT
BRANCH   1   7
HETATM    7  C   UNL     1      63.321   7.810   4.489  1.00  0.00     0.417 C 
HETATM    8  F   UNL     1      63.637   8.702   3.508  1.00  0.00    -0.166 F 
HETATM    9  F   UNL     1      62.190   8.291   5.077  1.00  0.00    -0.166 F 
HETATM   10  F   UNL     1      62.950   6.667   3.846  1.00  0.00    -0.166 F 
ENDBRANCH   1   7
BRANCH   4  11
HETATM   11  N   UNL     1      67.632   6.860   8.137  1.00  0.00    -0.399 N 
HETATM   12  H   UNL     1      68.529   6.777   7.740  1.00  0.00     0.156 HD
HETATM   13  H   UNL     1      67.506   6.723   9.104  1.00  0.00     0.156 HD
ENDBRANCH   4  11
TORSDOF 2
ENDMDL
