MODEL 1
REMARK VINA RESULT:      -5.7      0.000      0.000
REMARK  1 active torsions:
REMARK  status: ('A' for Active; 'I' for Inactive)
REMARK    1  A    between atoms: N_1  and  C_6 
ROOT
HETATM    1  N   UNL     1      64.060   8.109   5.434  1.00  0.00    -0.224 N 
HETATM    2  C   UNL     1      63.567   7.195   6.376  1.00  0.00     0.248 A 
HETATM    3  N   UNL     1      65.441   8.110   5.329  1.00  0.00    -0.299 N 
ATOM      4  HN  UNL     1      66.008   8.690   4.710  1.00  0.00     0.187 HD
HETATM    5  C   UNL     1      64.784   6.488   6.888  1.00  0.00     0.158 A 
HETATM    6  C   UNL     1      65.867   7.224   6.173  1.00  0.00     0.009 A 
HETATM    7  O   UNL     1      62.428   6.953   6.741  1.00  0.00    -0.271 OA
HETATM    8  C   UNL     1      67.307   6.935   6.424  1.00  0.00     0.065 C 
ENDROOT
BRANCH   1   9
HETATM    9  C   UNL     1      63.319   9.022   4.640  1.00  0.00     0.061 A 
HETATM   10  C   UNL     1      62.927   8.713   3.331  1.00  0.00     0.055 A 
HETATM   11  C   UNL     1      62.194   9.632   2.574  1.00  0.00     0.036 A 
HETATM   12 CL   UNL     1      61.700   9.217   0.977  1.00  0.00    -0.084 Cl
HETATM   13  C   UNL     1      61.853  10.875   3.097  1.00  0.00     0.024 A 
HETATM   14  C   UNL     1      62.238  11.202   4.393  1.00  0.00     0.004 A 
HETATM   15  C   UNL     1      62.959  10.279   5.159  1.00  0.00     0.032 A 
ENDBRANCH   1   9
TORSDOF 1
ENDMDL
MODEL 2
REMARK VINA RESULT:      -5.4      2.229      2.917
REMARK  1 active torsions:
REMARK  status: ('A' for Active; 'I' for Inactive)
REMARK    1  A    between atoms: N_1  and  C_6 
ROOT
HETATM    1  N   UNL     1      65.362   7.746   5.808  1.00  0.00    -0.224 N 
HETATM    2  C   UNL     1      66.753   7.806   5.637  1.00  0.00     0.248 A 
HETATM    3  N   UNL     1      64.972   7.109   6.974  1.00  0.00    -0.299 N 
ATOM      4  HN  UNL     1      64.017   6.955   7.298  1.00  0.00     0.187 HD
HETATM    5  C   UNL     1      67.313   7.181   6.878  1.00  0.00     0.158 A 
HETATM    6  C   UNL     1      66.064   6.750   7.571  1.00  0.00     0.009 A 
HETATM    7  O   UNL     1      67.433   8.260   4.731  1.00  0.00    -0.271 OA
HETATM    8  C   UNL     1      66.104   5.981   8.847  1.00  0.00     0.065 C 
ENDROOT
BRANCH   1   9
HETATM    9  C   UNL     1      64.358   8.219   4.925  1.00  0.00     0.061 A 
HETATM   10  C   UNL     1      63.774   9.483   5.079  1.00  0.00     0.055 A 
HETATM   11  C   UNL     1      62.789   9.922   4.190  1.00  0.00     0.036 A 
HETATM   12 CL   UNL     1      62.106  11.492   4.384  1.00  0.00    -0.084 Cl
HETATM   13  C   UNL     1      62.357   9.111   3.146  1.00  0.00     0.024 A 
HETATM   14  C   UNL     1      62.922   7.850   2.981  1.00  0.00     0.004 A 
HETATM   15  C   UNL     1      63.919   7.413   3.859  1.00  0.00     0.032 A 
ENDBRANCH   1   9
TORSDOF 1
ENDMDL
MODEL 3
REMARK VINA RESULT:      -5.1      3.011      5.542
REMARK  1 active torsions:
REMARK  status: ('A' for Active; 'I' for Inactive)
REMARK    1  A    between atoms: N_1  and  C_6 
ROOT
HETATM    1  N   UNL     1      64.470   8.328   4.945  1.00  0.00    -0.224 N 
HETATM    2  C   UNL     1      63.719   7.925   3.831  1.00  0.00     0.248 A 
HETATM    3  N   UNL     1      64.078   9.549   5.468  1.00  0.00    -0.299 N 
ATOM      4  HN  UNL     1      64.483  10.029   6.272  1.00  0.00     0.187 HD
HETATM    5  C   UNL     1      62.685   8.997   3.666  1.00  0.00     0.158 A 
HETATM    6  C   UNL     1      63.094   9.958   4.732  1.00  0.00     0.009 A 
HETATM    7  O   UNL     1      63.804   6.939   3.117  1.00  0.00    -0.271 OA
HETATM    8  C   UNL     1      62.402  11.264   4.914  1.00  0.00     0.065 C 
ENDROOT
BRANCH   1   9
HETATM    9  C   UNL     1      65.569   7.657   5.539  1.00  0.00     0.061 A 
HETATM   10  C   UNL     1      65.452   6.990   6.765  1.00  0.00     0.055 A 
HETATM   11  C   UNL     1      66.553   6.334   7.324  1.00  0.00     0.036 A 
HETATM   12 CL   UNL     1      66.376   5.497   8.819  1.00  0.00    -0.084 Cl
HETATM   13  C   UNL     1      67.788   6.343   6.685  1.00  0.00     0.024 A 
HETATM   14  C   UNL     1      67.925   7.005   5.469  1.00  0.00     0.004 A 
HETATM   15  C   UNL     1      66.822   7.649   4.899  1.00  0.00     0.032 A 
ENDBRANCH   1   9
TORSDOF 1
ENDMDL
MODEL 4
REMARK VINA RESULT:      -5.0      2.987      5.335
REMARK  1 active torsions:
REMARK  status: ('A' for Active; 'I' for Inactive)
REMARK    1  A    between atoms: N_1  and  C_6 
ROOT
HETATM    1  N   UNL     1      62.803   8.775   3.312  1.00  0.00    -0.224 N 
HETATM    2  C   UNL     1      62.578   8.269   2.023  1.00  0.00     0.248 A 
HETATM    3  N   UNL     1      62.463  10.110   3.452  1.00  0.00    -0.299 N 
ATOM      4  HN  UNL     1      62.543  10.677   4.296  1.00  0.00     0.187 HD
HETATM    5  C   UNL     1      61.965   9.411   1.271  1.00  0.00     0.158 A 
HETATM    6  C   UNL     1      62.024  10.494   2.295  1.00  0.00     0.009 A 
HETATM    7  O   UNL     1      62.784   7.165   1.545  1.00  0.00    -0.271 OA
HETATM    8  C   UNL     1      61.596  11.887   1.985  1.00  0.00     0.065 C 
ENDROOT
BRANCH   1   9
HETATM    9  C   UNL     1      63.355   8.095   4.427  1.00  0.00     0.061 A 
HETATM   10  C   UNL     1      64.659   8.345   4.873  1.00  0.00     0.055 A 
HETATM   11  C   UNL     1      65.174   7.661   5.978  1.00  0.00     0.036 A 
HETATM   12 CL   UNL     1      66.771   8.008   6.525  1.00  0.00    -0.084 Cl
HETATM   13  C   UNL     1      64.412   6.708   6.646  1.00  0.00     0.024 A 
HETATM   14  C   UNL     1      63.117   6.441   6.213  1.00  0.00     0.004 A 
HETATM   15  C   UNL     1      62.593   7.135   5.117  1.00  0.00     0.032 A 
ENDBRANCH   1   9
TORSDOF 1
ENDMDL
MODEL 5
REMARK VINA RESULT:      -4.8      2.951      3.949
REMARK  1 active torsions:
REMARK  status: ('A' for Active; 'I' for Inactive)
REMARK    1  A    between atoms: N_1  and  C_6 
ROOT
HETATM    1  N   UNL     1      62.153   8.982   3.712  1.00  0.00    -0.224 N 
HETATM    2  C   UNL     1      62.281  10.270   4.253  1.00  0.00     0.248 A 
HETATM    3  N   UNL     1      63.173   8.121   4.080  1.00  0.00    -0.299 N 
ATOM      4  HN  UNL     1      63.279   7.145   3.805  1.00  0.00     0.187 HD
HETATM    5  C   UNL     1      63.502  10.197   5.118  1.00  0.00     0.158 A 
HETATM    6  C   UNL     1      63.964   8.805   4.845  1.00  0.00     0.009 A 
HETATM    7  O   UNL     1      61.594  11.270   4.120  1.00  0.00    -0.271 OA
HETATM    8  C   UNL     1      65.229   8.273   5.426  1.00  0.00     0.065 C 
ENDROOT
BRANCH   1   9
HETATM    9  C   UNL     1      61.147   8.507   2.833  1.00  0.00     0.061 A 
HETATM   10  C   UNL     1      60.014   7.832   3.303  1.00  0.00     0.055 A 
HETATM   11  C   UNL     1      59.038   7.378   2.411  1.00  0.00     0.036 A 
HETATM   12 CL   UNL     1      57.639   6.575   3.017  1.00  0.00    -0.084 Cl
HETATM   13  C   UNL     1      59.178   7.571   1.041  1.00  0.00     0.024 A 
HETATM   14  C   UNL     1      60.300   8.234   0.555  1.00  0.00     0.004 A 
HETATM   15  C   UNL     1      61.272   8.704   1.445  1.00  0.00     0.032 A 
ENDBRANCH   1   9
TORSDOF 1
ENDMDL
MODEL 6
REMARK VINA RESULT:      -4.6      2.962      5.409
REMARK  1 active torsions:
REMARK  status: ('A' for Active; 'I' for Inactive)
REMARK    1  A    between atoms: N_1  and  C_6 
ROOT
HETATM    1  N   UNL     1      63.640   8.506   4.049  1.00  0.00    -0.224 N 
HETATM    2  C   UNL     1      62.991   9.554   4.719  1.00  0.00     0.248 A 
HETATM    3  N   UNL     1      63.144   8.266   2.779  1.00  0.00    -0.299 N 
ATOM      4  HN  UNL     1      63.465   7.557   2.120  1.00  0.00     0.187 HD
HETATM    5  C   UNL     1      62.001  10.080   3.725  1.00  0.00     0.158 A 
HETATM    6  C   UNL     1      62.190   9.124   2.596  1.00  0.00     0.009 A 
HETATM    7  O   UNL     1      63.145  10.009   5.840  1.00  0.00    -0.271 OA
HETATM    8  C   UNL     1      61.345   9.183   1.370  1.00  0.00     0.065 C 
ENDROOT
BRANCH   1   9
HETATM    9  C   UNL     1      64.683   7.678   4.538  1.00  0.00     0.061 A 
HETATM   10  C   UNL     1      65.186   7.814   5.838  1.00  0.00     0.055 A 
HETATM   11  C   UNL     1      66.212   6.981   6.292  1.00  0.00     0.036 A 
HETATM   12 CL   UNL     1      66.794   7.149   7.905  1.00  0.00    -0.084 Cl
HETATM   13  C   UNL     1      66.766   6.013   5.460  1.00  0.00     0.024 A 
HETATM   14  C   UNL     1      66.282   5.867   4.164  1.00  0.00     0.004 A 
HETATM   15  C   UNL     1      65.245   6.689   3.711  1.00  0.00     0.032 A 
ENDBRANCH   1   9
TORSDOF 1
ENDMDL
MODEL 7
REMARK VINA RESULT:      -4.4      2.486      2.850
REMARK  1 active torsions:
REMARK  status: ('A' for Active; 'I' for Inactive)
REMARK    1  A    between atoms: N_1  and  C_6 
ROOT
HETATM    1  N   UNL     1      64.291   7.628   4.404  1.00  0.00    -0.224 N 
HETATM    2  C   UNL     1      64.986   8.541   5.210  1.00  0.00     0.248 A 
HETATM    3  N   UNL     1      65.027   6.502   4.077  1.00  0.00    -0.299 N 
ATOM      4  HN  UNL     1      64.721   5.714   3.505  1.00  0.00     0.187 HD
HETATM    5  C   UNL     1      66.305   7.883   5.475  1.00  0.00     0.158 A 
HETATM    6  C   UNL     1      66.183   6.649   4.644  1.00  0.00     0.009 A 
HETATM    7  O   UNL     1      64.661   9.630   5.655  1.00  0.00    -0.271 OA
HETATM    8  C   UNL     1      67.309   5.684   4.507  1.00  0.00     0.065 C 
ENDROOT
BRANCH   1   9
HETATM    9  C   UNL     1      62.979   7.756   3.881  1.00  0.00     0.061 A 
HETATM   10  C   UNL     1      61.886   7.095   4.457  1.00  0.00     0.055 A 
HETATM   11  C   UNL     1      60.604   7.244   3.921  1.00  0.00     0.036 A 
HETATM   12 CL   UNL     1      59.272   6.444   4.665  1.00  0.00    -0.084 Cl
HETATM   13  C   UNL     1      60.388   8.035   2.797  1.00  0.00     0.024 A 
HETATM   14  C   UNL     1      61.462   8.694   2.208  1.00  0.00     0.004 A 
HETATM   15  C   UNL     1      62.745   8.560   2.751  1.00  0.00     0.032 A 
ENDBRANCH   1   9
TORSDOF 1
ENDMDL
MODEL 8
REMARK VINA RESULT:      -4.3      4.192      5.745
REMARK  1 active torsions:
REMARK  status: ('A' for Active; 'I' for Inactive)
REMARK    1  A    between atoms: N_1  and  C_6 
ROOT
HETATM    1  N   UNL     1      61.077   8.295   2.884  1.00  0.00    -0.224 N 
HETATM    2  C   UNL     1      61.815   7.950   1.741  1.00  0.00     0.248 A 
HETATM    3  N   UNL     1      60.994   9.660   3.100  1.00  0.00    -0.299 N 
ATOM      4  HN  UNL     1      60.510  10.130   3.865  1.00  0.00     0.187 HD
HETATM    5  C   UNL     1      62.194   9.263   1.127  1.00  0.00     0.158 A 
HETATM    6  C   UNL     1      61.654  10.219   2.136  1.00  0.00     0.009 A 
HETATM    7  O   UNL     1      62.109   6.863   1.272  1.00  0.00    -0.271 OA
HETATM    8  C   UNL     1      61.863  11.689   2.010  1.00  0.00     0.065 C 
ENDROOT
BRANCH   1   9
HETATM    9  C   UNL     1      60.468   7.421   3.820  1.00  0.00     0.061 A 
HETATM   10  C   UNL     1      61.225   6.641   4.703  1.00  0.00     0.055 A 
HETATM   11  C   UNL     1      60.595   5.791   5.617  1.00  0.00     0.036 A 
HETATM   12 CL   UNL     1      61.548   4.863   6.712  1.00  0.00    -0.084 Cl
HETATM   13  C   UNL     1      59.208   5.690   5.658  1.00  0.00     0.024 A 
HETATM   14  C   UNL     1      58.440   6.453   4.785  1.00  0.00     0.004 A 
HETATM   15  C   UNL     1      59.067   7.316   3.879  1.00  0.00     0.032 A 
ENDBRANCH   1   9
TORSDOF 1
ENDMDL
MODEL 9
REMARK VINA RESULT:      -4.1     12.191     13.352
REMARK  1 active torsions:
REMARK  status: ('A' for Active; 'I' for Inactive)
REMARK    1  A    between atoms: N_1  and  C_6 
ROOT
HETATM    1  N   UNL     1      56.056   2.703  13.044  1.00  0.00    -0.224 N 
HETATM    2  C   UNL     1      56.939   2.743  11.955  1.00  0.00     0.248 A 
HETATM    3  N   UNL     1      56.558   2.026  14.143  1.00  0.00    -0.299 N 
ATOM      4  HN  UNL     1      56.090   1.876  15.036  1.00  0.00     0.187 HD
HETATM    5  C   UNL     1      58.177   2.057  12.448  1.00  0.00     0.158 A 
HETATM    6  C   UNL     1      57.742   1.622  13.807  1.00  0.00     0.009 A 
HETATM    7  O   UNL     1      56.819   3.221  10.839  1.00  0.00    -0.271 OA
HETATM    8  C   UNL     1      58.624   0.801  14.684  1.00  0.00     0.065 C 
ENDROOT
BRANCH   1   9
HETATM    9  C   UNL     1      54.741   3.231  13.114  1.00  0.00     0.061 A 
HETATM   10  C   UNL     1      54.438   4.356  13.891  1.00  0.00     0.055 A 
HETATM   11  C   UNL     1      53.133   4.855  13.937  1.00  0.00     0.036 A 
HETATM   12 CL   UNL     1      52.791   6.258  14.877  1.00  0.00    -0.084 Cl
HETATM   13  C   UNL     1      52.107   4.237  13.229  1.00  0.00     0.024 A 
HETATM   14  C   UNL     1      52.389   3.114  12.457  1.00  0.00     0.004 A 
HETATM   15  C   UNL     1      53.697   2.621  12.396  1.00  0.00     0.032 A 
ENDBRANCH   1   9
TORSDOF 1
ENDMDL
