MODEL 1
REMARK VINA RESULT:      -4.8      0.000      0.000
REMARK  2 active torsions:
REMARK  status: ('A' for Active; 'I' for Inactive)
REMARK    1  A    between atoms: C_3  and  O_9 
REMARK    2  A    between atoms: C_4  and  C_10 
ROOT
HETATM    1  N   UNL     1      63.131   7.449   6.724  1.00  0.00    -0.197 NA
HETATM    2  C   UNL     1      62.700   7.409   5.647  1.00  0.00     0.063 C 
HETATM    3  C   UNL     1      62.146   7.323   4.288  1.00  0.00     0.162 C 
ENDROOT
BRANCH   3   4
HETATM    4  C   UNL     1      62.080   8.663   3.594  1.00  0.00    -0.045 A 
HETATM    5  C   UNL     1      62.078   9.852   4.340  1.00  0.00     0.011 A 
HETATM    6  C   UNL     1      62.018  11.089   3.697  1.00  0.00     0.037 A 
HETATM    7  C   UNL     1      61.952  11.144   2.311  1.00  0.00     0.065 A 
HETATM    8  C   UNL     1      61.932   9.979   1.552  1.00  0.00     0.037 A 
HETATM    9  C   UNL     1      61.994   8.740   2.194  1.00  0.00     0.011 A 
BRANCH   7  10
HETATM   10  O   UNL     1      61.909  12.376   1.727  1.00  0.00    -0.361 OA
HETATM   11  H   UNL     1      62.284  12.504   0.878  1.00  0.00     0.217 HD
ENDBRANCH   7  10
ENDBRANCH   3   4
TORSDOF 2
ENDMDL
MODEL 2
REMARK VINA RESULT:      -4.8      2.919      3.777
REMARK  2 active torsions:
REMARK  status: ('A' for Active; 'I' for Inactive)
REMARK    1  A    between atoms: C_3  and  O_9 
REMARK    2  A    between atoms: C_4  and  C_10 
ROOT
HETATM    1  N   UNL     1      59.584   8.041   0.890  1.00  0.00    -0.197 NA
HETATM    2  C   UNL     1      60.613   8.563   1.016  1.00  0.00     0.063 C 
HETATM    3  C   UNL     1      61.921   9.222   1.140  1.00  0.00     0.162 C 
ENDROOT
BRANCH   3   4
HETATM    4  C   UNL     1      62.222   9.672   2.550  1.00  0.00    -0.045 A 
HETATM    5  C   UNL     1      61.864  10.959   2.979  1.00  0.00     0.011 A 
HETATM    6  C   UNL     1      62.141  11.372   4.283  1.00  0.00     0.037 A 
HETATM    7  C   UNL     1      62.783  10.506   5.159  1.00  0.00     0.065 A 
HETATM    8  C   UNL     1      63.166   9.233   4.750  1.00  0.00     0.037 A 
HETATM    9  C   UNL     1      62.887   8.818   3.446  1.00  0.00     0.011 A 
BRANCH   7  10
HETATM   10  O   UNL     1      63.021  10.949   6.427  1.00  0.00    -0.361 OA
HETATM   11  H   UNL     1      63.402  11.794   6.564  1.00  0.00     0.217 HD
ENDBRANCH   7  10
ENDBRANCH   3   4
TORSDOF 2
ENDMDL
MODEL 3
REMARK VINA RESULT:      -4.7      2.894      3.795
REMARK  2 active torsions:
REMARK  status: ('A' for Active; 'I' for Inactive)
REMARK    1  A    between atoms: C_3  and  O_9 
REMARK    2  A    between atoms: C_4  and  C_10 
ROOT
HETATM    1  N   UNL     1      59.417   8.013   0.839  1.00  0.00    -0.197 NA
HETATM    2  C   UNL     1      60.481   8.467   0.937  1.00  0.00     0.063 C 
HETATM    3  C   UNL     1      61.832   9.037   1.027  1.00  0.00     0.162 C 
ENDROOT
BRANCH   3   4
HETATM    4  C   UNL     1      62.145   9.598   2.394  1.00  0.00    -0.045 A 
HETATM    5  C   UNL     1      62.784   8.806   3.360  1.00  0.00     0.011 A 
HETATM    6  C   UNL     1      63.074   9.327   4.622  1.00  0.00     0.037 A 
HETATM    7  C   UNL     1      62.719  10.635   4.927  1.00  0.00     0.065 A 
HETATM    8  C   UNL     1      62.067  11.432   3.993  1.00  0.00     0.037 A 
HETATM    9  C   UNL     1      61.778  10.913   2.728  1.00  0.00     0.011 A 
BRANCH   7  10
HETATM   10  O   UNL     1      63.034  11.104   6.168  1.00  0.00    -0.361 OA
HETATM   11  H   UNL     1      62.593  11.857   6.510  1.00  0.00     0.217 HD
ENDBRANCH   7  10
ENDBRANCH   3   4
TORSDOF 2
ENDMDL
MODEL 4
REMARK VINA RESULT:      -4.6      1.764      2.436
REMARK  2 active torsions:
REMARK  status: ('A' for Active; 'I' for Inactive)
REMARK    1  A    between atoms: C_3  and  O_9 
REMARK    2  A    between atoms: C_4  and  C_10 
ROOT
HETATM    1  N   UNL     1      66.429   8.497   6.266  1.00  0.00    -0.197 NA
HETATM    2  C   UNL     1      65.412   8.139   5.835  1.00  0.00     0.063 C 
HETATM    3  C   UNL     1      64.130   7.656   5.304  1.00  0.00     0.162 C 
ENDROOT
BRANCH   3   4
HETATM    4  C   UNL     1      63.358   8.724   4.566  1.00  0.00    -0.045 A 
HETATM    5  C   UNL     1      62.958   8.523   3.235  1.00  0.00     0.011 A 
HETATM    6  C   UNL     1      62.243   9.510   2.556  1.00  0.00     0.037 A 
HETATM    7  C   UNL     1      61.932  10.702   3.197  1.00  0.00     0.065 A 
HETATM    8  C   UNL     1      62.335  10.931   4.508  1.00  0.00     0.037 A 
HETATM    9  C   UNL     1      63.049   9.943   5.191  1.00  0.00     0.011 A 
BRANCH   7  10
HETATM   10  O   UNL     1      61.221  11.632   2.498  1.00  0.00    -0.361 OA
HETATM   11  H   UNL     1      61.553  12.503   2.406  1.00  0.00     0.217 HD
ENDBRANCH   7  10
ENDBRANCH   3   4
TORSDOF 2
ENDMDL
MODEL 5
REMARK VINA RESULT:      -4.6      1.965      2.500
REMARK  2 active torsions:
REMARK  status: ('A' for Active; 'I' for Inactive)
REMARK    1  A    between atoms: C_3  and  O_9 
REMARK    2  A    between atoms: C_4  and  C_10 
ROOT
HETATM    1  N   UNL     1      64.189   5.839   2.482  1.00  0.00    -0.197 NA
HETATM    2  C   UNL     1      63.431   6.591   2.025  1.00  0.00     0.063 C 
HETATM    3  C   UNL     1      62.463   7.519   1.422  1.00  0.00     0.162 C 
ENDROOT
BRANCH   3   4
HETATM    4  C   UNL     1      62.328   8.811   2.192  1.00  0.00    -0.045 A 
HETATM    5  C   UNL     1      62.575   8.846   3.573  1.00  0.00     0.011 A 
HETATM    6  C   UNL     1      62.451  10.042   4.283  1.00  0.00     0.037 A 
HETATM    7  C   UNL     1      62.074  11.202   3.620  1.00  0.00     0.065 A 
HETATM    8  C   UNL     1      61.805  11.187   2.255  1.00  0.00     0.037 A 
HETATM    9  C   UNL     1      61.930   9.992   1.543  1.00  0.00     0.011 A 
BRANCH   7  10
HETATM   10  O   UNL     1      61.980  12.349   4.352  1.00  0.00    -0.361 OA
HETATM   11  H   UNL     1      62.628  12.545   4.999  1.00  0.00     0.217 HD
ENDBRANCH   7  10
ENDBRANCH   3   4
TORSDOF 2
ENDMDL
MODEL 6
REMARK VINA RESULT:      -3.8      1.942      2.573
REMARK  2 active torsions:
REMARK  status: ('A' for Active; 'I' for Inactive)
REMARK    1  A    between atoms: C_3  and  O_9 
REMARK    2  A    between atoms: C_4  and  C_10 
ROOT
HETATM    1  N   UNL     1      62.954   4.562   4.672  1.00  0.00    -0.197 NA
HETATM    2  C   UNL     1      63.594   5.506   4.458  1.00  0.00     0.063 C 
HETATM    3  C   UNL     1      64.434   6.681   4.185  1.00  0.00     0.162 C 
ENDROOT
BRANCH   3   4
HETATM    4  C   UNL     1      63.632   7.948   4.003  1.00  0.00    -0.045 A 
HETATM    5  C   UNL     1      62.939   8.186   2.805  1.00  0.00     0.011 A 
HETATM    6  C   UNL     1      62.197   9.356   2.639  1.00  0.00     0.037 A 
HETATM    7  C   UNL     1      62.150  10.295   3.662  1.00  0.00     0.065 A 
HETATM    8  C   UNL     1      62.845  10.090   4.849  1.00  0.00     0.037 A 
HETATM    9  C   UNL     1      63.587   8.918   5.018  1.00  0.00     0.011 A 
BRANCH   7  10
HETATM   10  O   UNL     1      61.401  11.417   3.459  1.00  0.00    -0.361 OA
HETATM   11  H   UNL     1      61.089  11.622   2.600  1.00  0.00     0.217 HD
ENDBRANCH   7  10
ENDBRANCH   3   4
TORSDOF 2
ENDMDL
MODEL 7
REMARK VINA RESULT:      -3.8      2.481      3.147
REMARK  2 active torsions:
REMARK  status: ('A' for Active; 'I' for Inactive)
REMARK    1  A    between atoms: C_3  and  O_9 
REMARK    2  A    between atoms: C_4  and  C_10 
ROOT
HETATM    1  N   UNL     1      60.342   5.494   3.512  1.00  0.00    -0.197 NA
HETATM    2  C   UNL     1      60.499   6.585   3.147  1.00  0.00     0.063 C 
HETATM    3  C   UNL     1      60.674   7.961   2.659  1.00  0.00     0.162 C 
ENDROOT
BRANCH   3   4
HETATM    4  C   UNL     1      61.551   8.797   3.561  1.00  0.00    -0.045 A 
HETATM    5  C   UNL     1      62.390   8.186   4.506  1.00  0.00     0.011 A 
HETATM    6  C   UNL     1      63.200   8.961   5.337  1.00  0.00     0.037 A 
HETATM    7  C   UNL     1      63.171  10.346   5.233  1.00  0.00     0.065 A 
HETATM    8  C   UNL     1      62.332  10.974   4.318  1.00  0.00     0.037 A 
HETATM    9  C   UNL     1      61.522  10.200   3.485  1.00  0.00     0.011 A 
BRANCH   7  10
HETATM   10  O   UNL     1      63.989  11.061   6.057  1.00  0.00    -0.361 OA
HETATM   11  H   UNL     1      63.624  11.685   6.653  1.00  0.00     0.217 HD
ENDBRANCH   7  10
ENDBRANCH   3   4
TORSDOF 2
ENDMDL
MODEL 8
REMARK VINA RESULT:      -3.5      6.711      7.609
REMARK  2 active torsions:
REMARK  status: ('A' for Active; 'I' for Inactive)
REMARK    1  A    between atoms: C_3  and  O_9 
REMARK    2  A    between atoms: C_4  and  C_10 
ROOT
HETATM    1  N   UNL     1      54.839   5.486   3.724  1.00  0.00    -0.197 NA
HETATM    2  C   UNL     1      55.769   6.124   4.000  1.00  0.00     0.063 C 
HETATM    3  C   UNL     1      56.946   6.945   4.317  1.00  0.00     0.162 C 
ENDROOT
BRANCH   3   4
HETATM    4  C   UNL     1      57.372   6.831   5.761  1.00  0.00    -0.045 A 
HETATM    5  C   UNL     1      58.492   6.062   6.114  1.00  0.00     0.011 A 
HETATM    6  C   UNL     1      58.885   5.959   7.449  1.00  0.00     0.037 A 
HETATM    7  C   UNL     1      58.160   6.615   8.436  1.00  0.00     0.065 A 
HETATM    8  C   UNL     1      57.035   7.367   8.111  1.00  0.00     0.037 A 
HETATM    9  C   UNL     1      56.641   7.472   6.775  1.00  0.00     0.011 A 
BRANCH   7  10
HETATM   10  O   UNL     1      58.589   6.497   9.724  1.00  0.00    -0.361 OA
HETATM   11  H   UNL     1      58.524   5.672  10.165  1.00  0.00     0.217 HD
ENDBRANCH   7  10
ENDBRANCH   3   4
TORSDOF 2
ENDMDL
MODEL 9
REMARK VINA RESULT:      -3.5      4.914      6.393
REMARK  2 active torsions:
REMARK  status: ('A' for Active; 'I' for Inactive)
REMARK    1  A    between atoms: C_3  and  O_9 
REMARK    2  A    between atoms: C_4  and  C_10 
ROOT
HETATM    1  N   UNL     1      67.262   3.309   8.828  1.00  0.00    -0.197 NA
HETATM    2  C   UNL     1      67.602   4.378   8.531  1.00  0.00     0.063 C 
HETATM    3  C   UNL     1      68.064   5.727   8.173  1.00  0.00     0.162 C 
ENDROOT
BRANCH   3   4
HETATM    4  C   UNL     1      67.143   6.426   7.201  1.00  0.00    -0.045 A 
HETATM    5  C   UNL     1      67.654   7.022   6.038  1.00  0.00     0.011 A 
HETATM    6  C   UNL     1      66.801   7.666   5.140  1.00  0.00     0.037 A 
HETATM    7  C   UNL     1      65.439   7.724   5.403  1.00  0.00     0.065 A 
HETATM    8  C   UNL     1      64.912   7.158   6.560  1.00  0.00     0.037 A 
HETATM    9  C   UNL     1      65.764   6.512   7.459  1.00  0.00     0.011 A 
BRANCH   7  10
HETATM   10  O   UNL     1      64.643   8.352   4.491  1.00  0.00    -0.361 OA
HETATM   11  H   UNL     1      64.269   9.187   4.692  1.00  0.00     0.217 HD
ENDBRANCH   7  10
ENDBRANCH   3   4
TORSDOF 2
ENDMDL
