MODEL 1
REMARK VINA RESULT:      -4.5      0.000      0.000
REMARK  0 active torsions:
REMARK  status: ('A' for Active; 'I' for Inactive)
ROOT
HETATM    1  N   UNL     1      63.025   9.386   5.597  1.00  0.00    -0.365 N 
HETATM    2  C   UNL     1      63.404   8.075   5.482  1.00  0.00     0.089 A 
HETATM    3  C   UNL     1      62.607   9.868   4.376  1.00  0.00     0.042 A 
HETATM    4  C   UNL     1      62.735   8.826   3.458  1.00  0.00    -0.008 A 
HETATM    5  C   UNL     1      63.240   7.702   4.168  1.00  0.00     0.030 A 
HETATM    6  C   UNL     1      62.129  11.135   4.020  1.00  0.00     0.030 A 
HETATM    7  C   UNL     1      62.372   9.056   2.118  1.00  0.00     0.014 A 
HETATM    8  C   UNL     1      61.888  10.316   1.744  1.00  0.00     0.001 A 
HETATM    9  C   UNL     1      61.770  11.338   2.684  1.00  0.00     0.002 A 
HETATM   10  H   UNL     1      63.049   9.908   6.430  1.00  0.00     0.165 HD
ENDROOT
TORSDOF 0
ENDMDL
MODEL 2
REMARK VINA RESULT:      -4.4      1.642      2.881
REMARK  0 active torsions:
REMARK  status: ('A' for Active; 'I' for Inactive)
ROOT
HETATM    1  N   UNL     1      62.781   7.501   2.249  1.00  0.00    -0.365 N 
HETATM    2  C   UNL     1      62.544   7.467   0.901  1.00  0.00     0.089 A 
HETATM    3  C   UNL     1      62.524   8.761   2.745  1.00  0.00     0.042 A 
HETATM    4  C   UNL     1      62.119   9.550   1.668  1.00  0.00    -0.008 A 
HETATM    5  C   UNL     1      62.138   8.722   0.512  1.00  0.00     0.030 A 
HETATM    6  C   UNL     1      62.618   9.254   4.051  1.00  0.00     0.030 A 
HETATM    7  C   UNL     1      61.794  10.899   1.903  1.00  0.00     0.014 A 
HETATM    8  C   UNL     1      61.877  11.409   3.204  1.00  0.00     0.001 A 
HETATM    9  C   UNL     1      62.284  10.596   4.261  1.00  0.00     0.002 A 
HETATM   10  H   UNL     1      63.091   6.737   2.787  1.00  0.00     0.165 HD
ENDROOT
TORSDOF 0
ENDMDL
MODEL 3
REMARK VINA RESULT:      -4.4      1.067      2.422
REMARK  0 active torsions:
REMARK  status: ('A' for Active; 'I' for Inactive)
ROOT
HETATM    1  N   UNL     1      63.153   9.518   5.087  1.00  0.00    -0.365 N 
HETATM    2  C   UNL     1      62.803  10.799   5.421  1.00  0.00     0.089 A 
HETATM    3  C   UNL     1      62.797   9.252   3.783  1.00  0.00     0.042 A 
HETATM    4  C   UNL     1      62.193  10.404   3.280  1.00  0.00    -0.008 A 
HETATM    5  C   UNL     1      62.202  11.371   4.323  1.00  0.00     0.030 A 
HETATM    6  C   UNL     1      62.964   8.091   3.020  1.00  0.00     0.030 A 
HETATM    7  C   UNL     1      61.728  10.400   1.952  1.00  0.00     0.014 A 
HETATM    8  C   UNL     1      61.890   9.249   1.172  1.00  0.00     0.001 A 
HETATM    9  C   UNL     1      62.500   8.112   1.701  1.00  0.00     0.002 A 
HETATM   10  H   UNL     1      63.595   8.879   5.691  1.00  0.00     0.165 HD
ENDROOT
TORSDOF 0
ENDMDL
MODEL 4
REMARK VINA RESULT:      -4.4      1.269      2.031
REMARK  0 active torsions:
REMARK  status: ('A' for Active; 'I' for Inactive)
ROOT
HETATM    1  N   UNL     1      62.249  11.251   4.297  1.00  0.00    -0.365 N 
HETATM    2  C   UNL     1      62.840  10.715   5.410  1.00  0.00     0.089 A 
HETATM    3  C   UNL     1      62.233  10.327   3.276  1.00  0.00     0.042 A 
HETATM    4  C   UNL     1      62.844   9.170   3.760  1.00  0.00    -0.008 A 
HETATM    5  C   UNL     1      63.223   9.429   5.106  1.00  0.00     0.030 A 
HETATM    6  C   UNL     1      61.728  10.426   1.974  1.00  0.00     0.030 A 
HETATM    7  C   UNL     1      62.961   8.058   2.906  1.00  0.00     0.014 A 
HETATM    8  C   UNL     1      62.458   8.138   1.602  1.00  0.00     0.001 A 
HETATM    9  C   UNL     1      61.851   9.307   1.146  1.00  0.00     0.002 A 
HETATM   10  H   UNL     1      61.888  12.164   4.235  1.00  0.00     0.165 HD
ENDROOT
TORSDOF 0
ENDMDL
MODEL 5
REMARK VINA RESULT:      -4.4      1.660      2.978
REMARK  0 active torsions:
REMARK  status: ('A' for Active; 'I' for Inactive)
ROOT
HETATM    1  N   UNL     1      61.337  10.340   2.022  1.00  0.00    -0.365 N 
HETATM    2  C   UNL     1      61.517   9.249   1.213  1.00  0.00     0.089 A 
HETATM    3  C   UNL     1      62.059  10.194   3.185  1.00  0.00     0.042 A 
HETATM    4  C   UNL     1      62.712   8.963   3.111  1.00  0.00    -0.008 A 
HETATM    5  C   UNL     1      62.359   8.378   1.863  1.00  0.00     0.030 A 
HETATM    6  C   UNL     1      62.184  11.050   4.285  1.00  0.00     0.030 A 
HETATM    7  C   UNL     1      63.526   8.563   4.186  1.00  0.00     0.014 A 
HETATM    8  C   UNL     1      63.666   9.408   5.294  1.00  0.00     0.001 A 
HETATM    9  C   UNL     1      63.003  10.633   5.339  1.00  0.00     0.002 A 
HETATM   10  H   UNL     1      60.773  11.116   1.803  1.00  0.00     0.165 HD
ENDROOT
TORSDOF 0
ENDMDL
MODEL 6
REMARK VINA RESULT:      -4.2      0.965      1.971
REMARK  0 active torsions:
REMARK  status: ('A' for Active; 'I' for Inactive)
ROOT
HETATM    1  N   UNL     1      63.267   7.694   3.985  1.00  0.00    -0.365 N 
HETATM    2  C   UNL     1      63.416   8.116   5.279  1.00  0.00     0.089 A 
HETATM    3  C   UNL     1      62.751   8.710   3.209  1.00  0.00     0.042 A 
HETATM    4  C   UNL     1      62.561   9.809   4.048  1.00  0.00    -0.008 A 
HETATM    5  C   UNL     1      62.983   9.420   5.349  1.00  0.00     0.030 A 
HETATM    6  C   UNL     1      62.444   8.738   1.844  1.00  0.00     0.030 A 
HETATM    7  C   UNL     1      62.036  10.994   3.501  1.00  0.00     0.014 A 
HETATM    8  C   UNL     1      61.726  11.042   2.136  1.00  0.00     0.001 A 
HETATM    9  C   UNL     1      61.929   9.929   1.323  1.00  0.00     0.002 A 
HETATM   10  H   UNL     1      63.494   6.795   3.655  1.00  0.00     0.165 HD
ENDROOT
TORSDOF 0
ENDMDL
MODEL 7
REMARK VINA RESULT:      -4.1      1.303      3.059
REMARK  0 active torsions:
REMARK  status: ('A' for Active; 'I' for Inactive)
ROOT
HETATM    1  N   UNL     1      63.551  10.401   5.672  1.00  0.00    -0.365 N 
HETATM    2  C   UNL     1      62.567  11.168   5.109  1.00  0.00     0.089 A 
HETATM    3  C   UNL     1      63.739   9.251   4.937  1.00  0.00     0.042 A 
HETATM    4  C   UNL     1      62.833   9.291   3.877  1.00  0.00    -0.008 A 
HETATM    5  C   UNL     1      62.100  10.504   3.998  1.00  0.00     0.030 A 
HETATM    6  C   UNL     1      64.632   8.191   5.129  1.00  0.00     0.030 A 
HETATM    7  C   UNL     1      62.814   8.221   2.963  1.00  0.00     0.014 A 
HETATM    8  C   UNL     1      63.704   7.154   3.136  1.00  0.00     0.001 A 
HETATM    9  C   UNL     1      64.599   7.142   4.205  1.00  0.00     0.002 A 
HETATM   10  H   UNL     1      64.053  10.637   6.486  1.00  0.00     0.165 HD
ENDROOT
TORSDOF 0
ENDMDL
MODEL 8
REMARK VINA RESULT:      -3.8      1.546      2.408
REMARK  0 active torsions:
REMARK  status: ('A' for Active; 'I' for Inactive)
ROOT
HETATM    1  N   UNL     1      64.211   7.219   3.548  1.00  0.00    -0.365 N 
HETATM    2  C   UNL     1      65.007   7.080   4.653  1.00  0.00     0.089 A 
HETATM    3  C   UNL     1      63.462   8.372   3.643  1.00  0.00     0.042 A 
HETATM    4  C   UNL     1      63.792   8.976   4.856  1.00  0.00    -0.008 A 
HETATM    5  C   UNL     1      64.766   8.150   5.483  1.00  0.00     0.030 A 
HETATM    6  C   UNL     1      62.528   8.919   2.756  1.00  0.00     0.030 A 
HETATM    7  C   UNL     1      63.160  10.183   5.206  1.00  0.00     0.014 A 
HETATM    8  C   UNL     1      62.226  10.748   4.328  1.00  0.00     0.001 A 
HETATM    9  C   UNL     1      61.917  10.123   3.122  1.00  0.00     0.002 A 
HETATM   10  H   UNL     1      64.178   6.588   2.793  1.00  0.00     0.165 HD
ENDROOT
TORSDOF 0
ENDMDL
MODEL 9
REMARK VINA RESULT:      -3.7      1.933      2.638
REMARK  0 active torsions:
REMARK  status: ('A' for Active; 'I' for Inactive)
ROOT
HETATM    1  N   UNL     1      61.379   7.207   2.058  1.00  0.00    -0.365 N 
HETATM    2  C   UNL     1      61.285   6.585   3.274  1.00  0.00     0.089 A 
HETATM    3  C   UNL     1      61.575   8.560   2.230  1.00  0.00     0.042 A 
HETATM    4  C   UNL     1      61.597   8.800   3.604  1.00  0.00    -0.008 A 
HETATM    5  C   UNL     1      61.411   7.546   4.250  1.00  0.00     0.030 A 
HETATM    6  C   UNL     1      61.734   9.578   1.282  1.00  0.00     0.030 A 
HETATM    7  C   UNL     1      61.783  10.118   4.058  1.00  0.00     0.014 A 
HETATM    8  C   UNL     1      61.948  11.149   3.125  1.00  0.00     0.001 A 
HETATM    9  C   UNL     1      61.923  10.880   1.758  1.00  0.00     0.002 A 
HETATM   10  H   UNL     1      61.316   6.754   1.186  1.00  0.00     0.165 HD
ENDROOT
TORSDOF 0
ENDMDL
