MODEL 1
REMARK VINA RESULT:      -3.9      0.000      0.000
REMARK  1 active torsions:
REMARK  status: ('A' for Active; 'I' for Inactive)
REMARK    1  A    between atoms: C_1  and  C_5 
ROOT
HETATM    1  C   UNL     1      61.790   9.818   3.744  1.00  0.00     0.119 A 
HETATM    2  N   UNL     1      60.815   9.031   3.326  1.00  0.00    -0.357 N 
ATOM      3  HN  UNL     1      60.029   9.324   2.746  1.00  0.00     0.166 HD
HETATM    4  S   UNL     1      62.990   9.065   4.713  1.00  0.00    -0.079 SA
HETATM    5  C   UNL     1      61.025   7.749   3.798  1.00  0.00     0.096 A 
HETATM    6  C   UNL     1      62.154   7.576   4.570  1.00  0.00     0.069 A 
ENDROOT
BRANCH   1   7
HETATM    7  C   UNL     1      61.873  11.237   3.424  1.00  0.00     0.179 C 
HETATM    8  O   UNL     1      62.009  12.135   4.257  1.00  0.00    -0.291 OA
HETATM    9  C   UNL     1      61.784  11.585   1.956  1.00  0.00     0.099 C 
ENDBRANCH   1   7
TORSDOF 1
ENDMDL
MODEL 2
REMARK VINA RESULT:      -3.6      1.468      1.654
REMARK  1 active torsions:
REMARK  status: ('A' for Active; 'I' for Inactive)
REMARK    1  A    between atoms: C_1  and  C_5 
ROOT
HETATM    1  C   UNL     1      62.345   9.813   4.264  1.00  0.00     0.119 A 
HETATM    2  N   UNL     1      63.001   9.588   5.387  1.00  0.00    -0.357 N 
ATOM      3  HN  UNL     1      63.342  10.308   6.025  1.00  0.00     0.166 HD
HETATM    4  S   UNL     1      61.889   8.416   3.376  1.00  0.00    -0.079 SA
HETATM    5  C   UNL     1      63.157   8.226   5.564  1.00  0.00     0.096 A 
HETATM    6  C   UNL     1      62.619   7.432   4.574  1.00  0.00     0.069 A 
ENDROOT
BRANCH   1   7
HETATM    7  C   UNL     1      62.013  11.146   3.777  1.00  0.00     0.179 C 
HETATM    8  O   UNL     1      61.888  12.141   4.494  1.00  0.00    -0.291 OA
HETATM    9  C   UNL     1      61.818  11.270   2.284  1.00  0.00     0.099 C 
ENDBRANCH   1   7
TORSDOF 1
ENDMDL
MODEL 3
REMARK VINA RESULT:      -3.6      6.197      6.865
REMARK  1 active torsions:
REMARK  status: ('A' for Active; 'I' for Inactive)
REMARK    1  A    between atoms: C_1  and  C_5 
ROOT
HETATM    1  C   UNL     1      66.711   7.120   7.224  1.00  0.00     0.119 A 
HETATM    2  N   UNL     1      67.374   7.388   8.334  1.00  0.00    -0.357 N 
ATOM      3  HN  UNL     1      67.845   8.268   8.541  1.00  0.00     0.166 HD
HETATM    4  S   UNL     1      66.012   5.555   7.135  1.00  0.00    -0.079 SA
HETATM    5  C   UNL     1      67.329   6.290   9.172  1.00  0.00     0.096 A 
HETATM    6  C   UNL     1      66.635   5.200   8.691  1.00  0.00     0.069 A 
ENDROOT
BRANCH   1   7
HETATM    7  C   UNL     1      66.562   8.066   6.126  1.00  0.00     0.179 C 
HETATM    8  O   UNL     1      65.783   9.021   6.126  1.00  0.00    -0.291 OA
HETATM    9  C   UNL     1      67.446   7.821   4.925  1.00  0.00     0.099 C 
ENDBRANCH   1   7
TORSDOF 1
ENDMDL
MODEL 4
REMARK VINA RESULT:      -3.5      1.770      2.204
REMARK  1 active torsions:
REMARK  status: ('A' for Active; 'I' for Inactive)
REMARK    1  A    between atoms: C_1  and  C_5 
ROOT
HETATM    1  C   UNL     1      62.113   9.897   3.111  1.00  0.00     0.119 A 
HETATM    2  N   UNL     1      61.398  10.096   2.019  1.00  0.00    -0.357 N 
ATOM      3  HN  UNL     1      60.872  10.943   1.805  1.00  0.00     0.166 HD
HETATM    4  S   UNL     1      62.898   8.374   3.218  1.00  0.00    -0.079 SA
HETATM    5  C   UNL     1      61.472   8.977   1.210  1.00  0.00     0.096 A 
HETATM    6  C   UNL     1      62.240   7.941   1.696  1.00  0.00     0.069 A 
ENDROOT
BRANCH   1   7
HETATM    7  C   UNL     1      62.248  10.881   4.176  1.00  0.00     0.179 C 
HETATM    8  O   UNL     1      61.809  12.031   4.126  1.00  0.00    -0.291 OA
HETATM    9  C   UNL     1      62.984  10.414   5.411  1.00  0.00     0.099 C 
ENDBRANCH   1   7
TORSDOF 1
ENDMDL
MODEL 5
REMARK VINA RESULT:      -3.5      3.102      4.130
REMARK  1 active torsions:
REMARK  status: ('A' for Active; 'I' for Inactive)
REMARK    1  A    between atoms: C_1  and  C_5 
ROOT
HETATM    1  C   UNL     1      63.979   9.283   5.002  1.00  0.00     0.119 A 
HETATM    2  N   UNL     1      63.666  10.408   5.617  1.00  0.00    -0.357 N 
ATOM      3  HN  UNL     1      64.172  10.810   6.406  1.00  0.00     0.166 HD
HETATM    4  S   UNL     1      62.952   8.836   3.701  1.00  0.00    -0.079 SA
HETATM    5  C   UNL     1      62.543  10.958   5.027  1.00  0.00     0.096 A 
HETATM    6  C   UNL     1      62.015  10.245   3.971  1.00  0.00     0.069 A 
ENDROOT
BRANCH   1   7
HETATM    7  C   UNL     1      65.113   8.449   5.376  1.00  0.00     0.179 C 
HETATM    8  O   UNL     1      65.942   8.741   6.240  1.00  0.00    -0.291 OA
HETATM    9  C   UNL     1      65.242   7.143   4.628  1.00  0.00     0.099 C 
ENDBRANCH   1   7
TORSDOF 1
ENDMDL
MODEL 6
REMARK VINA RESULT:      -3.5      2.619      2.957
REMARK  1 active torsions:
REMARK  status: ('A' for Active; 'I' for Inactive)
REMARK    1  A    between atoms: C_1  and  C_5 
ROOT
HETATM    1  C   UNL     1      63.707   9.315   4.997  1.00  0.00     0.119 A 
HETATM    2  N   UNL     1      64.747   8.882   5.686  1.00  0.00    -0.357 N 
ATOM      3  HN  UNL     1      65.169   9.363   6.480  1.00  0.00     0.166 HD
HETATM    4  S   UNL     1      63.200   8.307   3.703  1.00  0.00    -0.079 SA
HETATM    5  C   UNL     1      65.174   7.675   5.165  1.00  0.00     0.096 A 
HETATM    6  C   UNL     1      64.456   7.205   4.085  1.00  0.00     0.069 A 
ENDROOT
BRANCH   1   7
HETATM    7  C   UNL     1      63.013  10.563   5.285  1.00  0.00     0.179 C 
HETATM    8  O   UNL     1      63.122  11.198   6.335  1.00  0.00    -0.291 OA
HETATM    9  C   UNL     1      62.107  11.078   4.190  1.00  0.00     0.099 C 
ENDBRANCH   1   7
TORSDOF 1
ENDMDL
MODEL 7
REMARK VINA RESULT:      -3.3      3.603      4.447
REMARK  1 active torsions:
REMARK  status: ('A' for Active; 'I' for Inactive)
REMARK    1  A    between atoms: C_1  and  C_5 
ROOT
HETATM    1  C   UNL     1      64.644   8.595   5.063  1.00  0.00     0.119 A 
HETATM    2  N   UNL     1      63.982   9.673   5.439  1.00  0.00    -0.357 N 
ATOM      3  HN  UNL     1      64.313  10.363   6.112  1.00  0.00     0.166 HD
HETATM    4  S   UNL     1      63.850   7.598   3.912  1.00  0.00    -0.079 SA
HETATM    5  C   UNL     1      62.769   9.722   4.778  1.00  0.00     0.096 A 
HETATM    6  C   UNL     1      62.522   8.681   3.909  1.00  0.00     0.069 A 
ENDROOT
BRANCH   1   7
HETATM    7  C   UNL     1      65.962   8.240   5.571  1.00  0.00     0.179 C 
HETATM    8  O   UNL     1      66.466   8.707   6.595  1.00  0.00    -0.291 OA
HETATM    9  C   UNL     1      66.728   7.224   4.757  1.00  0.00     0.099 C 
ENDBRANCH   1   7
TORSDOF 1
ENDMDL
MODEL 8
REMARK VINA RESULT:      -3.1      2.259      3.346
REMARK  1 active torsions:
REMARK  status: ('A' for Active; 'I' for Inactive)
REMARK    1  A    between atoms: C_1  and  C_5 
ROOT
HETATM    1  C   UNL     1      62.915   9.151   3.820  1.00  0.00     0.119 A 
HETATM    2  N   UNL     1      63.030   8.317   2.803  1.00  0.00    -0.357 N 
ATOM      3  HN  UNL     1      63.538   7.433   2.821  1.00  0.00     0.166 HD
HETATM    4  S   UNL     1      62.003  10.573   3.516  1.00  0.00    -0.079 SA
HETATM    5  C   UNL     1      62.355   8.828   1.711  1.00  0.00     0.096 A 
HETATM    6  C   UNL     1      61.736  10.044   1.908  1.00  0.00     0.069 A 
ENDROOT
BRANCH   1   7
HETATM    7  C   UNL     1      63.512   8.914   5.128  1.00  0.00     0.179 C 
HETATM    8  O   UNL     1      64.465   9.546   5.587  1.00  0.00    -0.291 OA
HETATM    9  C   UNL     1      62.884   7.810   5.945  1.00  0.00     0.099 C 
ENDBRANCH   1   7
TORSDOF 1
ENDMDL
MODEL 9
REMARK VINA RESULT:      -3.0      5.867      7.061
REMARK  1 active torsions:
REMARK  status: ('A' for Active; 'I' for Inactive)
REMARK    1  A    between atoms: C_1  and  C_5 
ROOT
HETATM    1  C   UNL     1      66.165   6.985   7.470  1.00  0.00     0.119 A 
HETATM    2  N   UNL     1      64.908   6.669   7.220  1.00  0.00    -0.357 N 
ATOM      3  HN  UNL     1      64.333   6.047   7.788  1.00  0.00     0.166 HD
HETATM    4  S   UNL     1      66.901   8.056   6.348  1.00  0.00    -0.079 SA
HETATM    5  C   UNL     1      64.493   7.312   6.069  1.00  0.00     0.096 A 
HETATM    6  C   UNL     1      65.438   8.108   5.457  1.00  0.00     0.069 A 
ENDROOT
BRANCH   1   7
HETATM    7  C   UNL     1      66.912   6.476   8.613  1.00  0.00     0.179 C 
HETATM    8  O   UNL     1      66.654   6.737   9.790  1.00  0.00    -0.291 OA
HETATM    9  C   UNL     1      68.075   5.568   8.286  1.00  0.00     0.099 C 
ENDBRANCH   1   7
TORSDOF 1
ENDMDL
