MODEL 1
REMARK VINA RESULT:      -4.4      0.000      0.000
REMARK  1 active torsions:
REMARK  status: ('A' for Active; 'I' for Inactive)
REMARK    1  A    between atoms: C_3  and  N_5 
ROOT
HETATM    1  N   UNL     1      62.223  11.672   4.438  1.00  0.00    -0.352 N 
ATOM      2  HN  UNL     1      62.001  12.633   4.698  1.00  0.00     0.166 HD
HETATM    3  C   UNL     1      62.878  10.854   5.276  1.00  0.00     0.098 A 
HETATM    4  C   UNL     1      61.870  11.169   3.232  1.00  0.00     0.096 A 
HETATM    5  C   UNL     1      63.207   9.547   4.948  1.00  0.00     0.048 A 
HETATM    6  C   UNL     1      62.141   9.872   2.814  1.00  0.00    -0.046 A 
HETATM    7  C   UNL     1      62.827   9.048   3.705  1.00  0.00     0.012 A 
HETATM    8  C   UNL     1      61.707   9.367   1.476  1.00  0.00     0.049 C 
ENDROOT
BRANCH   3   9
HETATM    9  N   UNL     1      63.256  11.391   6.505  1.00  0.00    -0.385 N 
HETATM   10  H   UNL     1      64.157  11.215   6.861  1.00  0.00     0.157 HD
HETATM   11  H   UNL     1      62.624  11.945   7.016  1.00  0.00     0.157 HD
ENDBRANCH   3   9
TORSDOF 1
ENDMDL
MODEL 2
REMARK VINA RESULT:      -4.2      0.963      1.697
REMARK  1 active torsions:
REMARK  status: ('A' for Active; 'I' for Inactive)
REMARK    1  A    between atoms: C_3  and  N_5 
ROOT
HETATM    1  N   UNL     1      63.221   9.501   4.860  1.00  0.00    -0.352 N 
ATOM      2  HN  UNL     1      63.742   8.937   5.532  1.00  0.00     0.166 HD
HETATM    3  C   UNL     1      62.846  10.758   5.144  1.00  0.00     0.098 A 
HETATM    4  C   UNL     1      62.879   9.013   3.645  1.00  0.00     0.096 A 
HETATM    5  C   UNL     1      62.126  11.547   4.259  1.00  0.00     0.048 A 
HETATM    6  C   UNL     1      62.171   9.725   2.685  1.00  0.00    -0.046 A 
HETATM    7  C   UNL     1      61.792  11.026   3.012  1.00  0.00     0.012 A 
HETATM    8  C   UNL     1      61.840   9.139   1.351  1.00  0.00     0.049 C 
ENDROOT
BRANCH   3   9
HETATM    9  N   UNL     1      63.184  11.241   6.407  1.00  0.00    -0.385 N 
HETATM   10  H   UNL     1      62.580  11.089   7.169  1.00  0.00     0.157 HD
HETATM   11  H   UNL     1      64.026  11.732   6.537  1.00  0.00     0.157 HD
ENDBRANCH   3   9
TORSDOF 1
ENDMDL
MODEL 3
REMARK VINA RESULT:      -4.0      1.495      1.994
REMARK  1 active torsions:
REMARK  status: ('A' for Active; 'I' for Inactive)
REMARK    1  A    between atoms: C_3  and  N_5 
ROOT
HETATM    1  N   UNL     1      62.881  10.149   5.597  1.00  0.00    -0.352 N 
ATOM      2  HN  UNL     1      63.093  10.483   6.537  1.00  0.00     0.166 HD
HETATM    3  C   UNL     1      62.992   8.851   5.274  1.00  0.00     0.098 A 
HETATM    4  C   UNL     1      62.475  10.997   4.622  1.00  0.00     0.096 A 
HETATM    5  C   UNL     1      62.725   8.366   4.001  1.00  0.00     0.048 A 
HETATM    6  C   UNL     1      62.172  10.610   3.323  1.00  0.00    -0.046 A 
HETATM    7  C   UNL     1      62.302   9.256   3.017  1.00  0.00     0.012 A 
HETATM    8  C   UNL     1      61.709  11.590   2.295  1.00  0.00     0.049 C 
ENDROOT
BRANCH   3   9
HETATM    9  N   UNL     1      63.433   7.992   6.279  1.00  0.00    -0.385 N 
HETATM   10  H   UNL     1      62.907   7.893   7.106  1.00  0.00     0.157 HD
HETATM   11  H   UNL     1      64.268   7.485   6.162  1.00  0.00     0.157 HD
ENDBRANCH   3   9
TORSDOF 1
ENDMDL
MODEL 4
REMARK VINA RESULT:      -3.7      1.380      2.948
REMARK  1 active torsions:
REMARK  status: ('A' for Active; 'I' for Inactive)
REMARK    1  A    between atoms: C_3  and  N_5 
ROOT
HETATM    1  N   UNL     1      62.072  11.193   3.771  1.00  0.00    -0.352 N 
ATOM      2  HN  UNL     1      61.960  12.081   4.260  1.00  0.00     0.166 HD
HETATM    3  C   UNL     1      61.861  11.089   2.450  1.00  0.00     0.098 A 
HETATM    4  C   UNL     1      62.441  10.068   4.429  1.00  0.00     0.096 A 
HETATM    5  C   UNL     1      61.992   9.894   1.758  1.00  0.00     0.048 A 
HETATM    6  C   UNL     1      62.612   8.828   3.826  1.00  0.00    -0.046 A 
HETATM    7  C   UNL     1      62.380   8.752   2.454  1.00  0.00     0.012 A 
HETATM    8  C   UNL     1      63.041   7.625   4.603  1.00  0.00     0.049 C 
ENDROOT
BRANCH   3   9
HETATM    9  N   UNL     1      61.459  12.248   1.789  1.00  0.00    -0.385 N 
HETATM   10  H   UNL     1      61.487  13.115   2.255  1.00  0.00     0.157 HD
HETATM   11  H   UNL     1      61.149  12.200   0.856  1.00  0.00     0.157 HD
ENDBRANCH   3   9
TORSDOF 1
ENDMDL
MODEL 5
REMARK VINA RESULT:      -3.7      2.025      3.192
REMARK  1 active torsions:
REMARK  status: ('A' for Active; 'I' for Inactive)
REMARK    1  A    between atoms: C_3  and  N_5 
ROOT
HETATM    1  N   UNL     1      62.366   9.401   2.534  1.00  0.00    -0.352 N 
ATOM      2  HN  UNL     1      62.161   9.165   1.563  1.00  0.00     0.166 HD
HETATM    3  C   UNL     1      62.028  10.593   3.050  1.00  0.00     0.098 A 
HETATM    4  C   UNL     1      62.991   8.526   3.356  1.00  0.00     0.096 A 
HETATM    5  C   UNL     1      62.305  10.952   4.361  1.00  0.00     0.048 A 
HETATM    6  C   UNL     1      63.301   8.783   4.685  1.00  0.00    -0.046 A 
HETATM    7  C   UNL     1      62.942  10.032   5.191  1.00  0.00     0.012 A 
HETATM    8  C   UNL     1      63.976   7.768   5.550  1.00  0.00     0.049 C 
ENDROOT
BRANCH   3   9
HETATM    9  N   UNL     1      61.406  11.494   2.188  1.00  0.00    -0.385 N 
HETATM   10  H   UNL     1      61.889  11.833   1.399  1.00  0.00     0.157 HD
HETATM   11  H   UNL     1      60.485  11.791   2.367  1.00  0.00     0.157 HD
ENDBRANCH   3   9
TORSDOF 1
ENDMDL
MODEL 6
REMARK VINA RESULT:      -3.4      2.111      2.520
REMARK  1 active torsions:
REMARK  status: ('A' for Active; 'I' for Inactive)
REMARK    1  A    between atoms: C_3  and  N_5 
ROOT
HETATM    1  N   UNL     1      63.840   7.678   3.875  1.00  0.00    -0.352 N 
ATOM      2  HN  UNL     1      64.415   6.838   3.949  1.00  0.00     0.166 HD
HETATM    3  C   UNL     1      63.797   8.587   4.861  1.00  0.00     0.098 A 
HETATM    4  C   UNL     1      63.087   7.921   2.776  1.00  0.00     0.096 A 
HETATM    5  C   UNL     1      63.015   9.731   4.798  1.00  0.00     0.048 A 
HETATM    6  C   UNL     1      62.283   9.041   2.610  1.00  0.00    -0.046 A 
HETATM    7  C   UNL     1      62.255   9.964   3.654  1.00  0.00     0.012 A 
HETATM    8  C   UNL     1      61.488   9.265   1.364  1.00  0.00     0.049 C 
ENDROOT
BRANCH   3   9
HETATM    9  N   UNL     1      64.558   8.313   5.996  1.00  0.00    -0.385 N 
HETATM   10  H   UNL     1      64.288   8.680   6.869  1.00  0.00     0.157 HD
HETATM   11  H   UNL     1      65.364   7.753   5.925  1.00  0.00     0.157 HD
ENDBRANCH   3   9
TORSDOF 1
ENDMDL
MODEL 7
REMARK VINA RESULT:      -3.4      2.824      3.323
REMARK  1 active torsions:
REMARK  status: ('A' for Active; 'I' for Inactive)
REMARK    1  A    between atoms: C_3  and  N_5 
ROOT
HETATM    1  N   UNL     1      62.351   8.152   1.610  1.00  0.00    -0.352 N 
ATOM      2  HN  UNL     1      62.383   7.462   0.859  1.00  0.00     0.166 HD
HETATM    3  C   UNL     1      62.594   7.810   2.885  1.00  0.00     0.098 A 
HETATM    4  C   UNL     1      62.060   9.451   1.363  1.00  0.00     0.096 A 
HETATM    5  C   UNL     1      62.544   8.720   3.931  1.00  0.00     0.048 A 
HETATM    6  C   UNL     1      61.999  10.439   2.336  1.00  0.00    -0.046 A 
HETATM    7  C   UNL     1      62.251  10.052   3.652  1.00  0.00     0.012 A 
HETATM    8  C   UNL     1      61.692  11.863   1.999  1.00  0.00     0.049 C 
ENDROOT
BRANCH   3   9
HETATM    9  N   UNL     1      62.869   6.466   3.131  1.00  0.00    -0.385 N 
HETATM   10  H   UNL     1      63.198   5.891   2.402  1.00  0.00     0.157 HD
HETATM   11  H   UNL     1      62.734   6.092   4.031  1.00  0.00     0.157 HD
ENDBRANCH   3   9
TORSDOF 1
ENDMDL
MODEL 8
REMARK VINA RESULT:      -3.3      6.700      7.928
REMARK  1 active torsions:
REMARK  status: ('A' for Active; 'I' for Inactive)
REMARK    1  A    between atoms: C_3  and  N_5 
ROOT
HETATM    1  N   UNL     1      66.305   5.231   8.885  1.00  0.00    -0.352 N 
ATOM      2  HN  UNL     1      65.741   4.973   9.696  1.00  0.00     0.166 HD
HETATM    3  C   UNL     1      67.226   4.396   8.380  1.00  0.00     0.098 A 
HETATM    4  C   UNL     1      66.154   6.429   8.273  1.00  0.00     0.096 A 
HETATM    5  C   UNL     1      68.018   4.720   7.288  1.00  0.00     0.048 A 
HETATM    6  C   UNL     1      66.886   6.842   7.168  1.00  0.00    -0.046 A 
HETATM    7  C   UNL     1      67.840   5.955   6.670  1.00  0.00     0.012 A 
HETATM    8  C   UNL     1      66.660   8.171   6.522  1.00  0.00     0.049 C 
ENDROOT
BRANCH   3   9
HETATM    9  N   UNL     1      67.389   3.175   9.033  1.00  0.00    -0.385 N 
HETATM   10  H   UNL     1      68.247   2.959   9.465  1.00  0.00     0.157 HD
HETATM   11  H   UNL     1      66.646   2.531   9.063  1.00  0.00     0.157 HD
ENDBRANCH   3   9
TORSDOF 1
ENDMDL
MODEL 9
REMARK VINA RESULT:      -3.3      4.093      5.070
REMARK  1 active torsions:
REMARK  status: ('A' for Active; 'I' for Inactive)
REMARK    1  A    between atoms: C_3  and  N_5 
ROOT
HETATM    1  N   UNL     1      65.223   6.942   7.383  1.00  0.00    -0.352 N 
ATOM      2  HN  UNL     1      64.855   6.609   8.275  1.00  0.00     0.166 HD
HETATM    3  C   UNL     1      66.507   7.308   7.250  1.00  0.00     0.098 A 
HETATM    4  C   UNL     1      64.436   7.032   6.285  1.00  0.00     0.096 A 
HETATM    5  C   UNL     1      67.036   7.778   6.056  1.00  0.00     0.048 A 
HETATM    6  C   UNL     1      64.872   7.476   5.043  1.00  0.00    -0.046 A 
HETATM    7  C   UNL     1      66.210   7.854   4.938  1.00  0.00     0.012 A 
HETATM    8  C   UNL     1      63.960   7.534   3.861  1.00  0.00     0.049 C 
ENDROOT
BRANCH   3   9
HETATM    9  N   UNL     1      67.301   7.233   8.393  1.00  0.00    -0.385 N 
HETATM   10  H   UNL     1      68.228   7.564   8.370  1.00  0.00     0.157 HD
HETATM   11  H   UNL     1      66.934   6.851   9.222  1.00  0.00     0.157 HD
ENDBRANCH   3   9
TORSDOF 1
ENDMDL
