MODEL 1
REMARK VINA RESULT:      -4.7      0.000      0.000
REMARK  7 active torsions:
REMARK  status: ('A' for Active; 'I' for Inactive)
REMARK    1  A    between atoms: C_1  and  N_3 
REMARK    2  A    between atoms: N_3  and  C_10 
REMARK    3  A    between atoms: N_3  and  C_11 
REMARK    4  A    between atoms: O_7  and  C_13 
REMARK    5  A    between atoms: O_8  and  C_14 
REMARK    6  A    between atoms: C_10  and  C_14 
REMARK    7  A    between atoms: C_11  and  C_13 
ROOT
HETATM    1  N   UNL     1      62.706   9.486   4.373  1.00  0.00    -0.377 N 
ENDROOT
BRANCH   1   2
HETATM    2  C   UNL     1      61.966   8.999   3.298  1.00  0.00     0.031 A 
HETATM    3  C   UNL     1      60.849   8.173   3.498  1.00  0.00     0.053 A 
HETATM    4  C   UNL     1      60.061   7.746   2.426  1.00  0.00     0.036 A 
HETATM    5  C   UNL     1      60.373   8.113   1.125  1.00  0.00     0.024 A 
HETATM    6 CL   UNL     1      58.670   6.775   2.729  1.00  0.00    -0.084 Cl
HETATM    7  C   UNL     1      61.491   8.905   0.895  1.00  0.00     0.004 A 
HETATM    8  C   UNL     1      62.274   9.339   1.972  1.00  0.00     0.029 A 
ENDBRANCH   1   2
BRANCH   1   9
HETATM    9  C   UNL     1      63.347   8.575   5.347  1.00  0.00     0.149 C 
BRANCH   9  10
HETATM   10  C   UNL     1      64.836   8.343   5.033  1.00  0.00     0.183 C 
BRANCH  10  11
HETATM   11  O   UNL     1      65.668   9.005   5.983  1.00  0.00    -0.399 OA
HETATM   12  H   UNL     1      65.144   9.236   6.767  1.00  0.00     0.209 HD
ENDBRANCH  10  11
ENDBRANCH   9  10
ENDBRANCH   1   9
BRANCH   1  13
HETATM   13  C   UNL     1      62.703  10.932   4.697  1.00  0.00     0.149 C 
BRANCH  13  14
HETATM   14  C   UNL     1      62.970  11.192   6.188  1.00  0.00     0.183 C 
BRANCH  14  15
HETATM   15  O   UNL     1      64.308  11.644   6.393  1.00  0.00    -0.399 OA
HETATM   16  H   UNL     1      64.418  12.521   5.993  1.00  0.00     0.209 HD
ENDBRANCH  14  15
ENDBRANCH  13  14
ENDBRANCH   1  13
TORSDOF 7
ENDMDL
MODEL 2
REMARK VINA RESULT:      -4.6      2.464      3.086
REMARK  7 active torsions:
REMARK  status: ('A' for Active; 'I' for Inactive)
REMARK    1  A    between atoms: C_1  and  N_3 
REMARK    2  A    between atoms: N_3  and  C_10 
REMARK    3  A    between atoms: N_3  and  C_11 
REMARK    4  A    between atoms: O_7  and  C_13 
REMARK    5  A    between atoms: O_8  and  C_14 
REMARK    6  A    between atoms: C_10  and  C_14 
REMARK    7  A    between atoms: C_11  and  C_13 
ROOT
HETATM    1  N   UNL     1      63.908   7.197   4.305  1.00  0.00    -0.377 N 
ENDROOT
BRANCH   1   2
HETATM    2  C   UNL     1      63.200   7.858   3.304  1.00  0.00     0.031 A 
HETATM    3  C   UNL     1      62.810   9.197   3.452  1.00  0.00     0.053 A 
HETATM    4  C   UNL     1      62.166   9.884   2.420  1.00  0.00     0.036 A 
HETATM    5  C   UNL     1      61.876   9.251   1.219  1.00  0.00     0.024 A 
HETATM    6 CL   UNL     1      61.755  11.544   2.631  1.00  0.00    -0.084 Cl
HETATM    7  C   UNL     1      62.223   7.916   1.057  1.00  0.00     0.004 A 
HETATM    8  C   UNL     1      62.876   7.233   2.090  1.00  0.00     0.029 A 
ENDBRANCH   1   2
BRANCH   1   9
HETATM    9  C   UNL     1      65.384   7.273   4.389  1.00  0.00     0.149 C 
BRANCH   9  10
HETATM   10  C   UNL     1      65.859   7.911   5.706  1.00  0.00     0.183 C 
BRANCH  10  11
HETATM   11  O   UNL     1      65.231   9.174   5.918  1.00  0.00    -0.399 OA
HETATM   12  H   UNL     1      64.762   9.441   5.112  1.00  0.00     0.209 HD
ENDBRANCH  10  11
ENDBRANCH   9  10
ENDBRANCH   1   9
BRANCH   1  13
HETATM   13  C   UNL     1      63.228   6.226   5.195  1.00  0.00     0.149 C 
BRANCH  13  14
HETATM   14  C   UNL     1      62.140   6.890   6.053  1.00  0.00     0.183 C 
BRANCH  14  15
HETATM   15  O   UNL     1      62.709   7.856   6.935  1.00  0.00    -0.399 OA
HETATM   16  H   UNL     1      63.621   7.603   7.149  1.00  0.00     0.209 HD
ENDBRANCH  14  15
ENDBRANCH  13  14
ENDBRANCH   1  13
TORSDOF 7
ENDMDL
MODEL 3
REMARK VINA RESULT:      -4.5      2.436      3.121
REMARK  7 active torsions:
REMARK  status: ('A' for Active; 'I' for Inactive)
REMARK    1  A    between atoms: C_1  and  N_3 
REMARK    2  A    between atoms: N_3  and  C_10 
REMARK    3  A    between atoms: N_3  and  C_11 
REMARK    4  A    between atoms: O_7  and  C_13 
REMARK    5  A    between atoms: O_8  and  C_14 
REMARK    6  A    between atoms: C_10  and  C_14 
REMARK    7  A    between atoms: C_11  and  C_13 
ROOT
HETATM    1  N   UNL     1      64.001   7.190   4.335  1.00  0.00    -0.377 N 
ENDROOT
BRANCH   1   2
HETATM    2  C   UNL     1      63.243   7.841   3.364  1.00  0.00     0.031 A 
HETATM    3  C   UNL     1      62.862   9.182   3.516  1.00  0.00     0.053 A 
HETATM    4  C   UNL     1      62.167   9.858   2.510  1.00  0.00     0.036 A 
HETATM    5  C   UNL     1      61.816   9.212   1.333  1.00  0.00     0.024 A 
HETATM    6 CL   UNL     1      61.768  11.520   2.723  1.00  0.00    -0.084 Cl
HETATM    7  C   UNL     1      62.154   7.874   1.169  1.00  0.00     0.004 A 
HETATM    8  C   UNL     1      62.857   7.202   2.176  1.00  0.00     0.029 A 
ENDBRANCH   1   2
BRANCH   1   9
HETATM    9  C   UNL     1      63.366   6.385   5.402  1.00  0.00     0.149 C 
BRANCH   9  10
HETATM   10  C   UNL     1      62.190   7.123   6.066  1.00  0.00     0.183 C 
BRANCH  10  11
HETATM   11  O   UNL     1      62.650   7.995   7.096  1.00  0.00    -0.399 OA
HETATM   12  H   UNL     1      62.034   7.962   7.846  1.00  0.00     0.209 HD
ENDBRANCH  10  11
ENDBRANCH   9  10
ENDBRANCH   1   9
BRANCH   1  13
HETATM   13  C   UNL     1      65.455   7.452   4.457  1.00  0.00     0.149 C 
BRANCH  13  14
HETATM   14  C   UNL     1      65.830   8.005   5.841  1.00  0.00     0.183 C 
BRANCH  14  15
HETATM   15  O   UNL     1      65.307   9.320   6.020  1.00  0.00    -0.399 OA
HETATM   16  H   UNL     1      65.726   9.925   5.388  1.00  0.00     0.209 HD
ENDBRANCH  14  15
ENDBRANCH  13  14
ENDBRANCH   1  13
TORSDOF 7
ENDMDL
MODEL 4
REMARK VINA RESULT:      -4.4      2.374      3.576
REMARK  7 active torsions:
REMARK  status: ('A' for Active; 'I' for Inactive)
REMARK    1  A    between atoms: C_1  and  N_3 
REMARK    2  A    between atoms: N_3  and  C_10 
REMARK    3  A    between atoms: N_3  and  C_11 
REMARK    4  A    between atoms: O_7  and  C_13 
REMARK    5  A    between atoms: O_8  and  C_14 
REMARK    6  A    between atoms: C_10  and  C_14 
REMARK    7  A    between atoms: C_11  and  C_13 
ROOT
HETATM    1  N   UNL     1      63.824   7.622   5.235  1.00  0.00    -0.377 N 
ENDROOT
BRANCH   1   2
HETATM    2  C   UNL     1      63.234   8.621   4.464  1.00  0.00     0.031 A 
HETATM    3  C   UNL     1      62.918   8.407   3.114  1.00  0.00     0.053 A 
HETATM    4  C   UNL     1      62.257   9.381   2.360  1.00  0.00     0.036 A 
HETATM    5  C   UNL     1      61.909  10.600   2.925  1.00  0.00     0.024 A 
HETATM    6 CL   UNL     1      61.845   9.050   0.721  1.00  0.00    -0.084 Cl
HETATM    7  C   UNL     1      62.238  10.850   4.251  1.00  0.00     0.004 A 
HETATM    8  C   UNL     1      62.892   9.869   5.006  1.00  0.00     0.029 A 
ENDBRANCH   1   2
BRANCH   1   9
HETATM    9  C   UNL     1      63.142   7.051   6.418  1.00  0.00     0.149 C 
BRANCH   9  10
HETATM   10  C   UNL     1      61.793   6.406   6.055  1.00  0.00     0.183 C 
BRANCH  10  11
HETATM   11  O   UNL     1      60.934   6.342   7.192  1.00  0.00    -0.399 OA
HETATM   12  H   UNL     1      60.298   7.074   7.159  1.00  0.00     0.209 HD
ENDBRANCH  10  11
ENDBRANCH   9  10
ENDBRANCH   1   9
BRANCH   1  13
HETATM   13  C   UNL     1      65.241   7.244   5.022  1.00  0.00     0.149 C 
BRANCH  13  14
HETATM   14  C   UNL     1      66.124   7.595   6.230  1.00  0.00     0.183 C 
BRANCH  14  15
HETATM   15  O   UNL     1      66.159   9.006   6.439  1.00  0.00    -0.399 OA
HETATM   16  H   UNL     1      65.683   9.224   7.256  1.00  0.00     0.209 HD
ENDBRANCH  14  15
ENDBRANCH  13  14
ENDBRANCH   1  13
TORSDOF 7
ENDMDL
MODEL 5
REMARK VINA RESULT:      -4.4      1.092      2.343
REMARK  7 active torsions:
REMARK  status: ('A' for Active; 'I' for Inactive)
REMARK    1  A    between atoms: C_1  and  N_3 
REMARK    2  A    between atoms: N_3  and  C_10 
REMARK    3  A    between atoms: N_3  and  C_11 
REMARK    4  A    between atoms: O_7  and  C_13 
REMARK    5  A    between atoms: O_8  and  C_14 
REMARK    6  A    between atoms: C_10  and  C_14 
REMARK    7  A    between atoms: C_11  and  C_13 
ROOT
HETATM    1  N   UNL     1      62.716   8.661   4.875  1.00  0.00    -0.377 N 
ENDROOT
BRANCH   1   2
HETATM    2  C   UNL     1      62.017   8.528   3.678  1.00  0.00     0.031 A 
HETATM    3  C   UNL     1      60.852   7.750   3.598  1.00  0.00     0.053 A 
HETATM    4  C   UNL     1      60.108   7.676   2.417  1.00  0.00     0.036 A 
HETATM    5  C   UNL     1      60.513   8.360   1.280  1.00  0.00     0.024 A 
HETATM    6 CL   UNL     1      58.657   6.749   2.385  1.00  0.00    -0.084 Cl
HETATM    7  C   UNL     1      61.680   9.113   1.322  1.00  0.00     0.004 A 
HETATM    8  C   UNL     1      62.418   9.192   2.509  1.00  0.00     0.029 A 
ENDBRANCH   1   2
BRANCH   1   9
HETATM    9  C   UNL     1      63.758   9.696   5.053  1.00  0.00     0.149 C 
BRANCH   9  10
HETATM   10  C   UNL     1      63.220  10.945   5.773  1.00  0.00     0.183 C 
BRANCH  10  11
HETATM   11  O   UNL     1      64.260  11.611   6.487  1.00  0.00    -0.399 OA
HETATM   12  H   UNL     1      64.388  12.500   6.119  1.00  0.00     0.209 HD
ENDBRANCH  10  11
ENDBRANCH   9  10
ENDBRANCH   1   9
BRANCH   1  13
HETATM   13  C   UNL     1      62.587   7.638   5.941  1.00  0.00     0.149 C 
BRANCH  13  14
HETATM   14  C   UNL     1      63.866   6.801   6.099  1.00  0.00     0.183 C 
BRANCH  14  15
HETATM   15  O   UNL     1      64.518   7.097   7.333  1.00  0.00    -0.399 OA
HETATM   16  H   UNL     1      65.395   6.685   7.344  1.00  0.00     0.209 HD
ENDBRANCH  14  15
ENDBRANCH  13  14
ENDBRANCH   1  13
TORSDOF 7
ENDMDL
MODEL 6
REMARK VINA RESULT:      -4.4      2.247      3.077
REMARK  7 active torsions:
REMARK  status: ('A' for Active; 'I' for Inactive)
REMARK    1  A    between atoms: C_1  and  N_3 
REMARK    2  A    between atoms: N_3  and  C_10 
REMARK    3  A    between atoms: N_3  and  C_11 
REMARK    4  A    between atoms: O_7  and  C_13 
REMARK    5  A    between atoms: O_8  and  C_14 
REMARK    6  A    between atoms: C_10  and  C_14 
REMARK    7  A    between atoms: C_11  and  C_13 
ROOT
HETATM    1  N   UNL     1      64.144   7.934   4.905  1.00  0.00    -0.377 N 
ENDROOT
BRANCH   1   2
HETATM    2  C   UNL     1      63.379   8.745   4.069  1.00  0.00     0.031 A 
HETATM    3  C   UNL     1      63.002   8.317   2.787  1.00  0.00     0.053 A 
HETATM    4  C   UNL     1      62.171   9.096   1.977  1.00  0.00     0.036 A 
HETATM    5  C   UNL     1      61.709  10.329   2.414  1.00  0.00     0.024 A 
HETATM    6 CL   UNL     1      61.694   8.503   0.432  1.00  0.00    -0.084 Cl
HETATM    7  C   UNL     1      62.093  10.791   3.667  1.00  0.00     0.004 A 
HETATM    8  C   UNL     1      62.918  10.005   4.479  1.00  0.00     0.029 A 
ENDBRANCH   1   2
BRANCH   1   9
HETATM    9  C   UNL     1      65.584   8.196   5.131  1.00  0.00     0.149 C 
BRANCH   9  10
HETATM   10  C   UNL     1      66.052   7.707   6.513  1.00  0.00     0.183 C 
BRANCH  10  11
HETATM   11  O   UNL     1      67.144   8.491   6.989  1.00  0.00    -0.399 OA
HETATM   12  H   UNL     1      66.929   8.846   7.867  1.00  0.00     0.209 HD
ENDBRANCH  10  11
ENDBRANCH   9  10
ENDBRANCH   1   9
BRANCH   1  13
HETATM   13  C   UNL     1      63.596   6.662   5.431  1.00  0.00     0.149 C 
BRANCH  13  14
HETATM   14  C   UNL     1      62.316   6.878   6.254  1.00  0.00     0.183 C 
BRANCH  14  15
HETATM   15  O   UNL     1      62.490   7.938   7.193  1.00  0.00    -0.399 OA
HETATM   16  H   UNL     1      62.629   8.772   6.719  1.00  0.00     0.209 HD
ENDBRANCH  14  15
ENDBRANCH  13  14
ENDBRANCH   1  13
TORSDOF 7
ENDMDL
MODEL 7
REMARK VINA RESULT:      -4.1      2.858      4.164
REMARK  7 active torsions:
REMARK  status: ('A' for Active; 'I' for Inactive)
REMARK    1  A    between atoms: C_1  and  N_3 
REMARK    2  A    between atoms: N_3  and  C_10 
REMARK    3  A    between atoms: N_3  and  C_11 
REMARK    4  A    between atoms: O_7  and  C_13 
REMARK    5  A    between atoms: O_8  and  C_14 
REMARK    6  A    between atoms: C_10  and  C_14 
REMARK    7  A    between atoms: C_11  and  C_13 
ROOT
HETATM    1  N   UNL     1      65.609   6.894   4.752  1.00  0.00    -0.377 N 
ENDROOT
BRANCH   1   2
HETATM    2  C   UNL     1      64.511   7.633   4.320  1.00  0.00     0.031 A 
HETATM    3  C   UNL     1      64.142   8.827   4.958  1.00  0.00     0.053 A 
HETATM    4  C   UNL     1      63.087   9.610   4.480  1.00  0.00     0.036 A 
HETATM    5  C   UNL     1      62.359   9.215   3.366  1.00  0.00     0.024 A 
HETATM    6 CL   UNL     1      62.706  11.094   5.267  1.00  0.00    -0.084 Cl
HETATM    7  C   UNL     1      62.684   8.022   2.733  1.00  0.00     0.004 A 
HETATM    8  C   UNL     1      63.747   7.244   3.209  1.00  0.00     0.029 A 
ENDBRANCH   1   2
BRANCH   1   9
HETATM    9  C   UNL     1      66.980   7.194   4.280  1.00  0.00     0.149 C 
BRANCH   9  10
HETATM   10  C   UNL     1      67.937   7.515   5.441  1.00  0.00     0.183 C 
BRANCH  10  11
HETATM   11  O   UNL     1      67.370   8.488   6.316  1.00  0.00    -0.399 OA
HETATM   12  H   UNL     1      67.379   8.149   7.226  1.00  0.00     0.209 HD
ENDBRANCH  10  11
ENDBRANCH   9  10
ENDBRANCH   1   9
BRANCH   1  13
HETATM   13  C   UNL     1      65.420   5.649   5.535  1.00  0.00     0.149 C 
BRANCH  13  14
HETATM   14  C   UNL     1      64.674   5.902   6.854  1.00  0.00     0.183 C 
BRANCH  14  15
HETATM   15  O   UNL     1      65.348   6.886   7.638  1.00  0.00    -0.399 OA
HETATM   16  H   UNL     1      66.208   6.540   7.922  1.00  0.00     0.209 HD
ENDBRANCH  14  15
ENDBRANCH  13  14
ENDBRANCH   1  13
TORSDOF 7
ENDMDL
MODEL 8
REMARK VINA RESULT:      -4.1      3.261      4.903
REMARK  7 active torsions:
REMARK  status: ('A' for Active; 'I' for Inactive)
REMARK    1  A    between atoms: C_1  and  N_3 
REMARK    2  A    between atoms: N_3  and  C_10 
REMARK    3  A    between atoms: N_3  and  C_11 
REMARK    4  A    between atoms: O_7  and  C_13 
REMARK    5  A    between atoms: O_8  and  C_14 
REMARK    6  A    between atoms: C_10  and  C_14 
REMARK    7  A    between atoms: C_11  and  C_13 
ROOT
HETATM    1  N   UNL     1      63.601   8.471   4.783  1.00  0.00    -0.377 N 
ENDROOT
BRANCH   1   2
HETATM    2  C   UNL     1      64.866   7.894   4.877  1.00  0.00     0.031 A 
HETATM    3  C   UNL     1      65.263   6.867   4.007  1.00  0.00     0.053 A 
HETATM    4  C   UNL     1      66.556   6.340   4.050  1.00  0.00     0.036 A 
HETATM    5  C   UNL     1      67.483   6.808   4.971  1.00  0.00     0.024 A 
HETATM    6 CL   UNL     1      67.012   5.116   2.927  1.00  0.00    -0.084 Cl
HETATM    7  C   UNL     1      67.106   7.803   5.864  1.00  0.00     0.004 A 
HETATM    8  C   UNL     1      65.813   8.335   5.813  1.00  0.00     0.029 A 
ENDBRANCH   1   2
BRANCH   1   9
HETATM    9  C   UNL     1      62.371   7.648   4.808  1.00  0.00     0.149 C 
BRANCH   9  10
HETATM   10  C   UNL     1      62.159   6.960   6.168  1.00  0.00     0.183 C 
BRANCH  10  11
HETATM   11  O   UNL     1      62.275   7.896   7.237  1.00  0.00    -0.399 OA
HETATM   12  H   UNL     1      62.058   8.785   6.914  1.00  0.00     0.209 HD
ENDBRANCH  10  11
ENDBRANCH   9  10
ENDBRANCH   1   9
BRANCH   1  13
HETATM   13  C   UNL     1      63.450   9.906   4.446  1.00  0.00     0.149 C 
BRANCH  13  14
HETATM   14  C   UNL     1      63.085  10.755   5.674  1.00  0.00     0.183 C 
BRANCH  14  15
HETATM   15  O   UNL     1      64.239  11.408   6.201  1.00  0.00    -0.399 OA
HETATM   16  H   UNL     1      64.031  12.338   6.380  1.00  0.00     0.209 HD
ENDBRANCH  14  15
ENDBRANCH  13  14
ENDBRANCH   1  13
TORSDOF 7
ENDMDL
MODEL 9
REMARK VINA RESULT:      -4.0      3.137      4.265
REMARK  7 active torsions:
REMARK  status: ('A' for Active; 'I' for Inactive)
REMARK    1  A    between atoms: C_1  and  N_3 
REMARK    2  A    between atoms: N_3  and  C_10 
REMARK    3  A    between atoms: N_3  and  C_11 
REMARK    4  A    between atoms: O_7  and  C_13 
REMARK    5  A    between atoms: O_8  and  C_14 
REMARK    6  A    between atoms: C_10  and  C_14 
REMARK    7  A    between atoms: C_11  and  C_13 
ROOT
HETATM    1  N   UNL     1      65.297   7.368   5.897  1.00  0.00    -0.377 N 
ENDROOT
BRANCH   1   2
HETATM    2  C   UNL     1      64.394   7.763   4.911  1.00  0.00     0.031 A 
HETATM    3  C   UNL     1      63.724   8.992   4.991  1.00  0.00     0.053 A 
HETATM    4  C   UNL     1      62.876   9.424   3.967  1.00  0.00     0.036 A 
HETATM    5  C   UNL     1      62.660   8.636   2.845  1.00  0.00     0.024 A 
HETATM    6 CL   UNL     1      62.116  10.965   4.087  1.00  0.00    -0.084 Cl
HETATM    7  C   UNL     1      63.288   7.400   2.756  1.00  0.00     0.004 A 
HETATM    8  C   UNL     1      64.142   6.973   3.779  1.00  0.00     0.029 A 
ENDBRANCH   1   2
BRANCH   1   9
HETATM    9  C   UNL     1      64.929   6.373   6.929  1.00  0.00     0.149 C 
BRANCH   9  10
HETATM   10  C   UNL     1      66.152   5.884   7.726  1.00  0.00     0.183 C 
BRANCH  10  11
HETATM   11  O   UNL     1      66.807   4.812   7.051  1.00  0.00    -0.399 OA
HETATM   12  H   UNL     1      67.617   5.141   6.631  1.00  0.00     0.209 HD
ENDBRANCH  10  11
ENDBRANCH   9  10
ENDBRANCH   1   9
BRANCH   1  13
HETATM   13  C   UNL     1      66.584   8.082   6.071  1.00  0.00     0.149 C 
BRANCH  13  14
HETATM   14  C   UNL     1      67.539   7.852   4.890  1.00  0.00     0.183 C 
BRANCH  14  15
HETATM   15  O   UNL     1      67.853   6.467   4.753  1.00  0.00    -0.399 OA
HETATM   16  H   UNL     1      67.573   6.156   3.878  1.00  0.00     0.209 HD
ENDBRANCH  14  15
ENDBRANCH  13  14
ENDBRANCH   1  13
TORSDOF 7
ENDMDL
