MODEL 1
REMARK VINA RESULT:      -5.2      0.000      0.000
REMARK  2 active torsions:
REMARK  status: ('A' for Active; 'I' for Inactive)
REMARK    1  A    between atoms: C_2  and  C_7 
REMARK    2  A    between atoms: C_5  and  C_7 
ROOT
HETATM    1  C   UNL     1      62.349   9.490   2.402  1.00  0.00     0.056 A 
HETATM    2  C   UNL     1      62.078  10.764   2.911  1.00  0.00     0.055 A 
HETATM    3  C   UNL     1      62.859   8.496   3.246  1.00  0.00     0.033 A 
HETATM    4  C   UNL     1      63.097   8.763   4.602  1.00  0.00    -0.046 A 
HETATM    5  C   UNL     1      62.309  11.034   4.262  1.00  0.00     0.026 A 
HETATM    6 CL   UNL     1      62.085   9.078   0.744  1.00  0.00    -0.083 Cl
HETATM    7  C   UNL     1      62.817  10.042   5.103  1.00  0.00     0.009 A 
HETATM    8 CL   UNL     1      61.464  12.045   1.928  1.00  0.00    -0.083 Cl
ENDROOT
BRANCH   4   9
HETATM    9  C   UNL     1      63.701   7.705   5.498  1.00  0.00     0.151 C 
BRANCH   9  10
HETATM   10  C   UNL     1      65.156   7.951   5.816  1.00  0.00     0.176 C 
HETATM   11  O   UNL     1      65.991   8.518   5.133  1.00  0.00    -0.648 OA
HETATM   12  O   UNL     1      65.499   7.454   7.023  1.00  0.00    -0.648 OA
ENDBRANCH   9  10
ENDBRANCH   4   9
TORSDOF 2
ENDMDL
MODEL 2
REMARK VINA RESULT:      -4.7      1.351      2.587
REMARK  2 active torsions:
REMARK  status: ('A' for Active; 'I' for Inactive)
REMARK    1  A    between atoms: C_2  and  C_7 
REMARK    2  A    between atoms: C_5  and  C_7 
ROOT
HETATM    1  C   UNL     1      62.731   9.480   3.691  1.00  0.00     0.056 A 
HETATM    2  C   UNL     1      62.469   8.683   2.571  1.00  0.00     0.055 A 
HETATM    3  C   UNL     1      63.623   9.033   4.672  1.00  0.00     0.033 A 
HETATM    4  C   UNL     1      64.265   7.792   4.542  1.00  0.00    -0.046 A 
HETATM    5  C   UNL     1      63.108   7.448   2.436  1.00  0.00     0.026 A 
HETATM    6 CL   UNL     1      61.983  11.021   3.928  1.00  0.00    -0.083 Cl
HETATM    7  C   UNL     1      63.999   7.003   3.415  1.00  0.00     0.009 A 
HETATM    8 CL   UNL     1      61.368   9.160   1.329  1.00  0.00    -0.083 Cl
ENDROOT
BRANCH   4   9
HETATM    9  C   UNL     1      65.185   7.286   5.631  1.00  0.00     0.151 C 
BRANCH   9  10
HETATM   10  C   UNL     1      66.364   8.192   5.886  1.00  0.00     0.176 C 
HETATM   11  O   UNL     1      66.609   8.848   6.884  1.00  0.00    -0.648 OA
HETATM   12  O   UNL     1      67.211   8.225   4.835  1.00  0.00    -0.648 OA
ENDBRANCH   9  10
ENDBRANCH   4   9
TORSDOF 2
ENDMDL
MODEL 3
REMARK VINA RESULT:      -4.7      3.565      4.645
REMARK  2 active torsions:
REMARK  status: ('A' for Active; 'I' for Inactive)
REMARK    1  A    between atoms: C_2  and  C_7 
REMARK    2  A    between atoms: C_5  and  C_7 
ROOT
HETATM    1  C   UNL     1      64.267   6.982   3.360  1.00  0.00     0.056 A 
HETATM    2  C   UNL     1      65.118   7.325   4.416  1.00  0.00     0.055 A 
HETATM    3  C   UNL     1      63.144   7.772   3.084  1.00  0.00     0.033 A 
HETATM    4  C   UNL     1      62.865   8.910   3.855  1.00  0.00    -0.046 A 
HETATM    5  C   UNL     1      64.847   8.459   5.183  1.00  0.00     0.026 A 
HETATM    6 CL   UNL     1      64.539   5.597   2.362  1.00  0.00    -0.083 Cl
HETATM    7  C   UNL     1      63.727   9.247   4.908  1.00  0.00     0.009 A 
HETATM    8 CL   UNL     1      66.512   6.390   4.825  1.00  0.00    -0.083 Cl
ENDROOT
BRANCH   4   9
HETATM    9  C   UNL     1      61.621   9.729   3.592  1.00  0.00     0.151 C 
BRANCH   9  10
HETATM   10  C   UNL     1      61.907  11.190   3.349  1.00  0.00     0.176 C 
HETATM   11  O   UNL     1      61.986  12.089   4.169  1.00  0.00    -0.648 OA
HETATM   12  O   UNL     1      62.090  11.458   2.039  1.00  0.00    -0.648 OA
ENDBRANCH   9  10
ENDBRANCH   4   9
TORSDOF 2
ENDMDL
MODEL 4
REMARK VINA RESULT:      -4.7      3.856      5.261
REMARK  2 active torsions:
REMARK  status: ('A' for Active; 'I' for Inactive)
REMARK    1  A    between atoms: C_2  and  C_7 
REMARK    2  A    between atoms: C_5  and  C_7 
ROOT
HETATM    1  C   UNL     1      65.887   7.602   5.623  1.00  0.00     0.056 A 
HETATM    2  C   UNL     1      65.272   6.599   6.380  1.00  0.00     0.055 A 
HETATM    3  C   UNL     1      65.106   8.581   4.998  1.00  0.00     0.033 A 
HETATM    4  C   UNL     1      63.710   8.571   5.126  1.00  0.00    -0.046 A 
HETATM    5  C   UNL     1      63.882   6.586   6.513  1.00  0.00     0.026 A 
HETATM    6 CL   UNL     1      67.601   7.688   5.415  1.00  0.00    -0.083 Cl
HETATM    7  C   UNL     1      63.104   7.564   5.890  1.00  0.00     0.009 A 
HETATM    8 CL   UNL     1      66.168   5.349   7.166  1.00  0.00    -0.083 Cl
ENDROOT
BRANCH   4   9
HETATM    9  C   UNL     1      62.865   9.596   4.402  1.00  0.00     0.151 C 
BRANCH   9  10
HETATM   10  C   UNL     1      62.713  10.890   5.163  1.00  0.00     0.176 C 
HETATM   11  O   UNL     1      63.157  11.174   6.263  1.00  0.00    -0.648 OA
HETATM   12  O   UNL     1      61.985  11.797   4.478  1.00  0.00    -0.648 OA
ENDBRANCH   9  10
ENDBRANCH   4   9
TORSDOF 2
ENDMDL
MODEL 5
REMARK VINA RESULT:      -4.7      1.737      2.009
REMARK  2 active torsions:
REMARK  status: ('A' for Active; 'I' for Inactive)
REMARK    1  A    between atoms: C_2  and  C_7 
REMARK    2  A    between atoms: C_5  and  C_7 
ROOT
HETATM    1  C   UNL     1      62.242   9.474   2.615  1.00  0.00     0.056 A 
HETATM    2  C   UNL     1      62.077  10.789   3.061  1.00  0.00     0.055 A 
HETATM    3  C   UNL     1      62.697   8.489   3.499  1.00  0.00     0.033 A 
HETATM    4  C   UNL     1      62.985   8.806   4.835  1.00  0.00    -0.046 A 
HETATM    5  C   UNL     1      62.359  11.110   4.391  1.00  0.00     0.026 A 
HETATM    6 CL   UNL     1      61.911   8.999   0.986  1.00  0.00    -0.083 Cl
HETATM    7  C   UNL     1      62.811  10.126   5.273  1.00  0.00     0.009 A 
HETATM    8 CL   UNL     1      61.537  12.060   2.024  1.00  0.00    -0.083 Cl
ENDROOT
BRANCH   4   9
HETATM    9  C   UNL     1      63.530   7.753   5.774  1.00  0.00     0.151 C 
BRANCH   9  10
HETATM   10  C   UNL     1      62.532   6.669   6.100  1.00  0.00     0.176 C 
HETATM   11  O   UNL     1      61.588   6.720   6.870  1.00  0.00    -0.648 OA
HETATM   12  O   UNL     1      62.779   5.533   5.413  1.00  0.00    -0.648 OA
ENDBRANCH   9  10
ENDBRANCH   4   9
TORSDOF 2
ENDMDL
MODEL 6
REMARK VINA RESULT:      -4.5      2.861      3.797
REMARK  2 active torsions:
REMARK  status: ('A' for Active; 'I' for Inactive)
REMARK    1  A    between atoms: C_2  and  C_7 
REMARK    2  A    between atoms: C_5  and  C_7 
ROOT
HETATM    1  C   UNL     1      60.222   7.721   2.792  1.00  0.00     0.056 A 
HETATM    2  C   UNL     1      60.384   8.096   1.453  1.00  0.00     0.055 A 
HETATM    3  C   UNL     1      61.114   8.195   3.762  1.00  0.00     0.033 A 
HETATM    4  C   UNL     1      62.169   9.048   3.406  1.00  0.00    -0.046 A 
HETATM    5  C   UNL     1      61.431   8.948   1.095  1.00  0.00     0.026 A 
HETATM    6 CL   UNL     1      58.949   6.674   3.314  1.00  0.00    -0.083 Cl
HETATM    7  C   UNL     1      62.320   9.421   2.063  1.00  0.00     0.009 A 
HETATM    8 CL   UNL     1      59.334   7.538   0.200  1.00  0.00    -0.083 Cl
ENDROOT
BRANCH   4   9
HETATM    9  C   UNL     1      63.164   9.512   4.446  1.00  0.00     0.151 C 
BRANCH   9  10
HETATM   10  C   UNL     1      62.759  10.793   5.132  1.00  0.00     0.176 C 
HETATM   11  O   UNL     1      63.088  11.194   6.235  1.00  0.00    -0.648 OA
HETATM   12  O   UNL     1      61.931  11.535   4.366  1.00  0.00    -0.648 OA
ENDBRANCH   9  10
ENDBRANCH   4   9
TORSDOF 2
ENDMDL
MODEL 7
REMARK VINA RESULT:      -4.2      3.767      5.034
REMARK  2 active torsions:
REMARK  status: ('A' for Active; 'I' for Inactive)
REMARK    1  A    between atoms: C_2  and  C_7 
REMARK    2  A    between atoms: C_5  and  C_7 
ROOT
HETATM    1  C   UNL     1      62.787   6.746   5.816  1.00  0.00     0.056 A 
HETATM    2  C   UNL     1      64.156   6.864   6.080  1.00  0.00     0.055 A 
HETATM    3  C   UNL     1      62.167   7.640   4.935  1.00  0.00     0.033 A 
HETATM    4  C   UNL     1      62.907   8.653   4.308  1.00  0.00    -0.046 A 
HETATM    5  C   UNL     1      64.897   7.869   5.454  1.00  0.00     0.026 A 
HETATM    6 CL   UNL     1      61.803   5.527   6.547  1.00  0.00    -0.083 Cl
HETATM    7  C   UNL     1      64.279   8.760   4.575  1.00  0.00     0.009 A 
HETATM    8 CL   UNL     1      64.986   5.809   7.167  1.00  0.00    -0.083 Cl
ENDROOT
BRANCH   4   9
HETATM    9  C   UNL     1      62.224   9.653   3.401  1.00  0.00     0.151 C 
BRANCH   9  10
HETATM   10  C   UNL     1      62.127  11.035   4.000  1.00  0.00     0.176 C 
HETATM   11  O   UNL     1      62.299  11.367   5.160  1.00  0.00    -0.648 OA
HETATM   12  O   UNL     1      61.808  11.965   3.075  1.00  0.00    -0.648 OA
ENDBRANCH   9  10
ENDBRANCH   4   9
TORSDOF 2
ENDMDL
MODEL 8
REMARK VINA RESULT:      -4.1      1.600      2.050
REMARK  2 active torsions:
REMARK  status: ('A' for Active; 'I' for Inactive)
REMARK    1  A    between atoms: C_2  and  C_7 
REMARK    2  A    between atoms: C_5  and  C_7 
ROOT
HETATM    1  C   UNL     1      63.200   7.564   2.635  1.00  0.00     0.056 A 
HETATM    2  C   UNL     1      62.308   8.642   2.681  1.00  0.00     0.055 A 
HETATM    3  C   UNL     1      64.199   7.444   3.608  1.00  0.00     0.033 A 
HETATM    4  C   UNL     1      64.313   8.393   4.635  1.00  0.00    -0.046 A 
HETATM    5  C   UNL     1      62.416   9.587   3.703  1.00  0.00     0.026 A 
HETATM    6 CL   UNL     1      63.128   6.352   1.404  1.00  0.00    -0.083 Cl
HETATM    7  C   UNL     1      63.413   9.466   4.674  1.00  0.00     0.009 A 
HETATM    8 CL   UNL     1      61.062   8.865   1.506  1.00  0.00    -0.083 Cl
ENDROOT
BRANCH   4   9
HETATM    9  C   UNL     1      65.429   8.292   5.652  1.00  0.00     0.151 C 
BRANCH   9  10
HETATM   10  C   UNL     1      65.380   7.025   6.470  1.00  0.00     0.176 C 
HETATM   11  O   UNL     1      66.142   6.074   6.432  1.00  0.00    -0.648 OA
HETATM   12  O   UNL     1      64.338   7.019   7.328  1.00  0.00    -0.648 OA
ENDBRANCH   9  10
ENDBRANCH   4   9
TORSDOF 2
ENDMDL
MODEL 9
REMARK VINA RESULT:      -4.0      2.226      2.945
REMARK  2 active torsions:
REMARK  status: ('A' for Active; 'I' for Inactive)
REMARK    1  A    between atoms: C_2  and  C_7 
REMARK    2  A    between atoms: C_5  and  C_7 
ROOT
HETATM    1  C   UNL     1      60.379   7.536   2.795  1.00  0.00     0.056 A 
HETATM    2  C   UNL     1      60.540   8.221   1.586  1.00  0.00     0.055 A 
HETATM    3  C   UNL     1      61.213   7.831   3.880  1.00  0.00     0.033 A 
HETATM    4  C   UNL     1      62.208   8.813   3.769  1.00  0.00    -0.046 A 
HETATM    5  C   UNL     1      61.527   9.202   1.472  1.00  0.00     0.026 A 
HETATM    6 CL   UNL     1      59.178   6.312   3.016  1.00  0.00    -0.083 Cl
HETATM    7  C   UNL     1      62.358   9.497   2.555  1.00  0.00     0.009 A 
HETATM    8 CL   UNL     1      59.560   7.899   0.200  1.00  0.00    -0.083 Cl
ENDROOT
BRANCH   4   9
HETATM    9  C   UNL     1      63.145   9.091   4.924  1.00  0.00     0.151 C 
BRANCH   9  10
HETATM   10  C   UNL     1      63.566   7.845   5.665  1.00  0.00     0.176 C 
HETATM   11  O   UNL     1      64.336   6.974   5.297  1.00  0.00    -0.648 OA
HETATM   12  O   UNL     1      62.978   7.755   6.876  1.00  0.00    -0.648 OA
ENDBRANCH   9  10
ENDBRANCH   4   9
TORSDOF 2
ENDMDL
