MODEL 1
REMARK VINA RESULT:      -4.6      0.000      0.000
REMARK  3 active torsions:
REMARK  status: ('A' for Active; 'I' for Inactive)
REMARK    1  A    between atoms: C_1  and  O_2 
REMARK    2  A    between atoms: O_2  and  C_3 
REMARK    3  A    between atoms: C_8  and  N_9 
ROOT
HETATM    1  C   UNL     1      62.234   8.903   3.531  1.00  0.00     0.080 C 
HETATM    2  C   UNL     1      62.348  10.033   4.338  1.00  0.00     0.066 C 
HETATM    3  C   UNL     1      63.349  10.127   5.306  1.00  0.00     0.028 C 
HETATM    4  C   UNL     1      64.293   8.053   4.478  1.00  0.00     0.005 C 
HETATM    5  C   UNL     1      63.234   7.925   3.583  1.00  0.00     0.037 C 
HETATM    6  C   UNL     1      64.355   9.155   5.331  1.00  0.00     0.029 C 
ENDROOT
BRANCH   1   7
HETATM    7  O   UNL     1      61.249   8.681   2.620  1.00  0.00    -0.255 OA
BRANCH   7   8
HETATM    8  C   UNL     1      61.439   9.157   1.292  1.00  0.00     0.530 C 
HETATM    9  F   UNL     1      62.544   8.688   0.679  1.00  0.00    -0.144 F 
HETATM   10  F   UNL     1      61.534  10.507   1.329  1.00  0.00    -0.144 F 
HETATM   11  F   UNL     1      60.359   8.834   0.546  1.00  0.00    -0.144 F 
ENDBRANCH   7   8
ENDBRANCH   1   7
BRANCH   3  12
HETATM   12  N   UNL     1      63.472  11.291   6.082  1.00  0.00    -0.399 N 
HETATM   13  H   UNL     1      63.360  12.175   5.664  1.00  0.00     0.156 HD
HETATM   14  H   UNL     1      63.672  11.223   7.044  1.00  0.00     0.156 HD
ENDBRANCH   3  12
TORSDOF 3
ENDMDL
MODEL 2
REMARK VINA RESULT:      -4.5      3.693      4.725
REMARK  3 active torsions:
REMARK  status: ('A' for Active; 'I' for Inactive)
REMARK    1  A    between atoms: C_1  and  O_2 
REMARK    2  A    between atoms: O_2  and  C_3 
REMARK    3  A    between atoms: C_8  and  N_9 
ROOT
HETATM    1  C   UNL     1      63.141   9.054   4.972  1.00  0.00     0.080 C 
HETATM    2  C   UNL     1      62.835   8.686   3.663  1.00  0.00     0.066 C 
HETATM    3  C   UNL     1      62.160   9.560   2.809  1.00  0.00     0.028 C 
HETATM    4  C   UNL     1      62.329  11.286   4.504  1.00  0.00     0.005 C 
HETATM    5  C   UNL     1      62.914  10.373   5.379  1.00  0.00     0.037 C 
HETATM    6  C   UNL     1      61.961  10.883   3.220  1.00  0.00     0.029 C 
ENDROOT
BRANCH   1   7
HETATM    7  O   UNL     1      63.719   8.249   5.903  1.00  0.00    -0.255 OA
BRANCH   7   8
HETATM    8  C   UNL     1      65.039   7.776   5.659  1.00  0.00     0.530 C 
HETATM    9  F   UNL     1      65.776   8.561   4.847  1.00  0.00    -0.144 F 
HETATM   10  F   UNL     1      64.959   6.554   5.084  1.00  0.00    -0.144 F 
HETATM   11  F   UNL     1      65.687   7.642   6.838  1.00  0.00    -0.144 F 
ENDBRANCH   7   8
ENDBRANCH   1   7
BRANCH   3  12
HETATM   12  N   UNL     1      61.897   9.186   1.483  1.00  0.00    -0.399 N 
HETATM   13  H   UNL     1      61.024   8.796   1.245  1.00  0.00     0.156 HD
HETATM   14  H   UNL     1      62.585   9.311   0.789  1.00  0.00     0.156 HD
ENDBRANCH   3  12
TORSDOF 3
ENDMDL
MODEL 3
REMARK VINA RESULT:      -4.4      3.278      4.250
REMARK  3 active torsions:
REMARK  status: ('A' for Active; 'I' for Inactive)
REMARK    1  A    between atoms: C_1  and  O_2 
REMARK    2  A    between atoms: O_2  and  C_3 
REMARK    3  A    between atoms: C_8  and  N_9 
ROOT
HETATM    1  C   UNL     1      62.733   8.559   3.672  1.00  0.00     0.080 C 
HETATM    2  C   UNL     1      62.288   9.871   3.514  1.00  0.00     0.066 C 
HETATM    3  C   UNL     1      61.993  10.382   2.250  1.00  0.00     0.028 C 
HETATM    4  C   UNL     1      62.338   8.171   1.316  1.00  0.00     0.005 C 
HETATM    5  C   UNL     1      62.725   7.700   2.568  1.00  0.00     0.037 C 
HETATM    6  C   UNL     1      61.965   9.507   1.159  1.00  0.00     0.029 C 
ENDROOT
BRANCH   1   7
HETATM    7  O   UNL     1      63.124   7.995   4.846  1.00  0.00    -0.255 OA
BRANCH   7   8
HETATM    8  C   UNL     1      64.491   8.109   5.227  1.00  0.00     0.530 C 
HETATM    9  F   UNL     1      65.369   7.646   4.315  1.00  0.00    -0.144 F 
HETATM   10  F   UNL     1      64.679   7.408   6.369  1.00  0.00    -0.144 F 
HETATM   11  F   UNL     1      64.774   9.407   5.482  1.00  0.00    -0.144 F 
ENDBRANCH   7   8
ENDBRANCH   1   7
BRANCH   3  12
HETATM   12  N   UNL     1      61.508  11.693   2.116  1.00  0.00    -0.399 N 
HETATM   13  H   UNL     1      61.914  12.423   2.636  1.00  0.00     0.156 HD
HETATM   14  H   UNL     1      60.762  11.882   1.502  1.00  0.00     0.156 HD
ENDBRANCH   3  12
TORSDOF 3
ENDMDL
MODEL 4
REMARK VINA RESULT:      -4.4      4.239      5.141
REMARK  3 active torsions:
REMARK  status: ('A' for Active; 'I' for Inactive)
REMARK    1  A    between atoms: C_1  and  O_2 
REMARK    2  A    between atoms: O_2  and  C_3 
REMARK    3  A    between atoms: C_8  and  N_9 
ROOT
HETATM    1  C   UNL     1      66.309   7.832   5.608  1.00  0.00     0.080 C 
HETATM    2  C   UNL     1      66.720   7.709   6.933  1.00  0.00     0.066 C 
HETATM    3  C   UNL     1      67.345   6.546   7.386  1.00  0.00     0.028 C 
HETATM    4  C   UNL     1      67.384   5.723   5.106  1.00  0.00     0.005 C 
HETATM    5  C   UNL     1      66.674   6.845   4.686  1.00  0.00     0.037 C 
HETATM    6  C   UNL     1      67.726   5.578   6.451  1.00  0.00     0.029 C 
ENDROOT
BRANCH   1   7
HETATM    7  O   UNL     1      65.621   8.885   5.090  1.00  0.00    -0.255 OA
BRANCH   7   8
HETATM    8  C   UNL     1      64.200   8.809   5.050  1.00  0.00     0.530 C 
HETATM    9  F   UNL     1      63.665   7.868   5.854  1.00  0.00    -0.144 F 
HETATM   10  F   UNL     1      63.820   8.528   3.782  1.00  0.00    -0.144 F 
HETATM   11  F   UNL     1      63.681  10.012   5.385  1.00  0.00    -0.144 F 
ENDBRANCH   7   8
ENDBRANCH   1   7
BRANCH   3  12
HETATM   12  N   UNL     1      67.788   6.457   8.715  1.00  0.00    -0.399 N 
HETATM   13  H   UNL     1      67.238   5.995   9.388  1.00  0.00     0.156 HD
HETATM   14  H   UNL     1      68.650   6.858   8.975  1.00  0.00     0.156 HD
ENDBRANCH   3  12
TORSDOF 3
ENDMDL
MODEL 5
REMARK VINA RESULT:      -4.4      1.247      1.914
REMARK  3 active torsions:
REMARK  status: ('A' for Active; 'I' for Inactive)
REMARK    1  A    between atoms: C_1  and  O_2 
REMARK    2  A    between atoms: O_2  and  C_3 
REMARK    3  A    between atoms: C_8  and  N_9 
ROOT
HETATM    1  C   UNL     1      62.036   9.095   3.376  1.00  0.00     0.080 C 
HETATM    2  C   UNL     1      63.004   8.423   4.120  1.00  0.00     0.066 C 
HETATM    3  C   UNL     1      63.786   9.098   5.059  1.00  0.00     0.028 C 
HETATM    4  C   UNL     1      62.443  11.083   4.695  1.00  0.00     0.005 C 
HETATM    5  C   UNL     1      61.736  10.424   3.692  1.00  0.00     0.037 C 
HETATM    6  C   UNL     1      63.459  10.419   5.382  1.00  0.00     0.029 C 
ENDROOT
BRANCH   1   7
HETATM    7  O   UNL     1      61.284   8.548   2.384  1.00  0.00    -0.255 OA
BRANCH   7   8
HETATM    8  C   UNL     1      61.880   8.372   1.103  1.00  0.00     0.530 C 
HETATM    9  F   UNL     1      62.822   7.409   1.049  1.00  0.00    -0.144 F 
HETATM   10  F   UNL     1      62.465   9.536   0.738  1.00  0.00    -0.144 F 
HETATM   11  F   UNL     1      60.916   8.088   0.200  1.00  0.00    -0.144 F 
ENDBRANCH   7   8
ENDBRANCH   1   7
BRANCH   3  12
HETATM   12  N   UNL     1      64.728   8.395   5.826  1.00  0.00    -0.399 N 
HETATM   13  H   UNL     1      65.577   8.106   5.420  1.00  0.00     0.156 HD
HETATM   14  H   UNL     1      64.539   8.190   6.771  1.00  0.00     0.156 HD
ENDBRANCH   3  12
TORSDOF 3
ENDMDL
MODEL 6
REMARK VINA RESULT:      -4.3      3.640      4.601
REMARK  3 active torsions:
REMARK  status: ('A' for Active; 'I' for Inactive)
REMARK    1  A    between atoms: C_1  and  O_2 
REMARK    2  A    between atoms: O_2  and  C_3 
REMARK    3  A    between atoms: C_8  and  N_9 
ROOT
HETATM    1  C   UNL     1      63.579   8.712   5.211  1.00  0.00     0.080 C 
HETATM    2  C   UNL     1      63.222  10.052   5.345  1.00  0.00     0.066 C 
HETATM    3  C   UNL     1      62.485  10.703   4.353  1.00  0.00     0.028 C 
HETATM    4  C   UNL     1      62.235   8.584   3.202  1.00  0.00     0.005 C 
HETATM    5  C   UNL     1      63.053   7.970   4.148  1.00  0.00     0.037 C 
HETATM    6  C   UNL     1      61.946   9.944   3.309  1.00  0.00     0.029 C 
ENDROOT
BRANCH   1   7
HETATM    7  O   UNL     1      64.361   8.014   6.077  1.00  0.00    -0.255 OA
BRANCH   7   8
HETATM    8  C   UNL     1      65.762   7.962   5.829  1.00  0.00     0.530 C 
HETATM    9  F   UNL     1      66.125   8.309   4.577  1.00  0.00    -0.144 F 
HETATM   10  F   UNL     1      66.189   6.695   6.042  1.00  0.00    -0.144 F 
HETATM   11  F   UNL     1      66.398   8.770   6.706  1.00  0.00    -0.144 F 
ENDBRANCH   7   8
ENDBRANCH   1   7
BRANCH   3  12
HETATM   12  N   UNL     1      62.102  12.042   4.525  1.00  0.00    -0.399 N 
HETATM   13  H   UNL     1      61.631  12.318   5.345  1.00  0.00     0.156 HD
HETATM   14  H   UNL     1      62.302  12.705   3.826  1.00  0.00     0.156 HD
ENDBRANCH   3  12
TORSDOF 3
ENDMDL
MODEL 7
REMARK VINA RESULT:      -4.2      2.516      3.223
REMARK  3 active torsions:
REMARK  status: ('A' for Active; 'I' for Inactive)
REMARK    1  A    between atoms: C_1  and  O_2 
REMARK    2  A    between atoms: O_2  and  C_3 
REMARK    3  A    between atoms: C_8  and  N_9 
ROOT
HETATM    1  C   UNL     1      63.814   8.334   4.630  1.00  0.00     0.080 C 
HETATM    2  C   UNL     1      65.129   8.560   5.031  1.00  0.00     0.066 C 
HETATM    3  C   UNL     1      65.667   7.899   6.137  1.00  0.00     0.028 C 
HETATM    4  C   UNL     1      63.640   6.578   6.286  1.00  0.00     0.005 C 
HETATM    5  C   UNL     1      63.080   7.313   5.244  1.00  0.00     0.037 C 
HETATM    6  C   UNL     1      64.932   6.865   6.726  1.00  0.00     0.029 C 
ENDROOT
BRANCH   1   7
HETATM    7  O   UNL     1      63.174   8.986   3.623  1.00  0.00    -0.255 OA
BRANCH   7   8
HETATM    8  C   UNL     1      62.243  10.008   3.964  1.00  0.00     0.530 C 
HETATM    9  F   UNL     1      62.429  10.553   5.183  1.00  0.00    -0.144 F 
HETATM   10  F   UNL     1      60.997   9.482   3.937  1.00  0.00    -0.144 F 
HETATM   11  F   UNL     1      62.303  10.989   3.036  1.00  0.00    -0.144 F 
ENDBRANCH   7   8
ENDBRANCH   1   7
BRANCH   3  12
HETATM   12  N   UNL     1      67.006   8.111   6.500  1.00  0.00    -0.399 N 
HETATM   13  H   UNL     1      67.531   7.377   6.894  1.00  0.00     0.156 HD
HETATM   14  H   UNL     1      67.420   8.994   6.362  1.00  0.00     0.156 HD
ENDBRANCH   3  12
TORSDOF 3
ENDMDL
MODEL 8
REMARK VINA RESULT:      -4.1      3.350      4.197
REMARK  3 active torsions:
REMARK  status: ('A' for Active; 'I' for Inactive)
REMARK    1  A    between atoms: C_1  and  O_2 
REMARK    2  A    between atoms: O_2  and  C_3 
REMARK    3  A    between atoms: C_8  and  N_9 
ROOT
HETATM    1  C   UNL     1      62.991   8.109   3.398  1.00  0.00     0.080 C 
HETATM    2  C   UNL     1      62.505   9.414   3.467  1.00  0.00     0.066 C 
HETATM    3  C   UNL     1      62.062  10.077   2.322  1.00  0.00     0.028 C 
HETATM    4  C   UNL     1      62.349   8.023   1.066  1.00  0.00     0.005 C 
HETATM    5  C   UNL     1      62.880   7.404   2.196  1.00  0.00     0.037 C 
HETATM    6  C   UNL     1      61.934   9.353   1.132  1.00  0.00     0.029 C 
ENDROOT
BRANCH   1   7
HETATM    7  O   UNL     1      63.519   7.409   4.437  1.00  0.00    -0.255 OA
BRANCH   7   8
HETATM    8  C   UNL     1      62.679   7.111   5.547  1.00  0.00     0.530 C 
HETATM    9  F   UNL     1      62.567   8.106   6.451  1.00  0.00    -0.144 F 
HETATM   10  F   UNL     1      63.180   6.031   6.189  1.00  0.00    -0.144 F 
HETATM   11  F   UNL     1      61.444   6.795   5.096  1.00  0.00    -0.144 F 
ENDBRANCH   7   8
ENDBRANCH   1   7
BRANCH   3  12
HETATM   12  N   UNL     1      61.540  11.376   2.418  1.00  0.00    -0.399 N 
HETATM   13  H   UNL     1      61.178  11.699   3.275  1.00  0.00     0.156 HD
HETATM   14  H   UNL     1      61.534  11.965   1.629  1.00  0.00     0.156 HD
ENDBRANCH   3  12
TORSDOF 3
ENDMDL
MODEL 9
REMARK VINA RESULT:      -4.0      6.318      7.359
REMARK  3 active torsions:
REMARK  status: ('A' for Active; 'I' for Inactive)
REMARK    1  A    between atoms: C_1  and  O_2 
REMARK    2  A    between atoms: O_2  and  C_3 
REMARK    3  A    between atoms: C_8  and  N_9 
ROOT
HETATM    1  C   UNL     1      66.155   6.168   6.988  1.00  0.00     0.080 C 
HETATM    2  C   UNL     1      65.183   6.959   6.379  1.00  0.00     0.066 C 
HETATM    3  C   UNL     1      65.335   7.396   5.061  1.00  0.00     0.028 C 
HETATM    4  C   UNL     1      67.323   6.020   4.874  1.00  0.00     0.005 C 
HETATM    5  C   UNL     1      67.211   5.671   6.218  1.00  0.00     0.037 C 
HETATM    6  C   UNL     1      66.383   6.873   4.295  1.00  0.00     0.029 C 
ENDROOT
BRANCH   1   7
HETATM    7  O   UNL     1      66.140   5.762   8.286  1.00  0.00    -0.255 OA
BRANCH   7   8
HETATM    8  C   UNL     1      66.842   6.544   9.246  1.00  0.00     0.530 C 
HETATM    9  F   UNL     1      67.286   7.732   8.786  1.00  0.00    -0.144 F 
HETATM   10  F   UNL     1      67.918   5.841   9.669  1.00  0.00    -0.144 F 
HETATM   11  F   UNL     1      66.041   6.763  10.312  1.00  0.00    -0.144 F 
ENDBRANCH   7   8
ENDBRANCH   1   7
BRANCH   3  12
HETATM   12  N   UNL     1      64.328   8.159   4.452  1.00  0.00    -0.399 N 
HETATM   13  H   UNL     1      63.486   8.337   4.932  1.00  0.00     0.156 HD
HETATM   14  H   UNL     1      64.461   8.517   3.544  1.00  0.00     0.156 HD
ENDBRANCH   3  12
TORSDOF 3
ENDMDL
