MODEL 1
REMARK VINA RESULT:      -4.4      0.000      0.000
REMARK  1 active torsions:
REMARK  status: ('A' for Active; 'I' for Inactive)
REMARK    1  A    between atoms: C_3  and  O_5 
ROOT
HETATM    1  N   UNL     1      64.177   9.554   5.482  1.00  0.00    -0.341 N 
ATOM      2  HN  UNL     1      64.981   9.270   6.041  1.00  0.00     0.167 HD
HETATM    3  C   UNL     1      63.610  10.763   5.619  1.00  0.00     0.140 A 
HETATM    4  C   UNL     1      63.622   8.734   4.559  1.00  0.00     0.007 A 
HETATM    5  C   UNL     1      61.972  10.374   3.963  1.00  0.00     0.006 A 
HETATM    6  C   UNL     1      62.524  11.226   4.909  1.00  0.00     0.056 A 
HETATM    7  C   UNL     1      62.527   9.108   3.781  1.00  0.00     0.025 A 
HETATM    8  C   UNL     1      64.218   7.367   4.404  1.00  0.00     0.068 C 
ENDROOT
BRANCH   3   9
HETATM    9  O   UNL     1      64.208  11.547   6.550  1.00  0.00    -0.346 OA
HETATM   10  H   UNL     1      65.036  11.297   6.910  1.00  0.00     0.219 HD
ENDBRANCH   3   9
TORSDOF 1
ENDMDL
MODEL 2
REMARK VINA RESULT:      -4.3      2.099      2.743
REMARK  1 active torsions:
REMARK  status: ('A' for Active; 'I' for Inactive)
REMARK    1  A    between atoms: C_3  and  O_5 
ROOT
HETATM    1  N   UNL     1      61.796  10.747   2.967  1.00  0.00    -0.341 N 
ATOM      2  HN  UNL     1      61.285  11.411   2.386  1.00  0.00     0.167 HD
HETATM    3  C   UNL     1      62.220  11.065   4.200  1.00  0.00     0.140 A 
HETATM    4  C   UNL     1      62.084   9.495   2.539  1.00  0.00     0.007 A 
HETATM    5  C   UNL     1      63.198   8.952   4.597  1.00  0.00     0.006 A 
HETATM    6  C   UNL     1      62.917  10.233   5.049  1.00  0.00     0.056 A 
HETATM    7  C   UNL     1      62.776   8.572   3.323  1.00  0.00     0.025 A 
HETATM    8  C   UNL     1      61.646   9.122   1.155  1.00  0.00     0.068 C 
ENDROOT
BRANCH   3   9
HETATM    9  O   UNL     1      61.900  12.326   4.582  1.00  0.00    -0.346 OA
HETATM   10  H   UNL     1      61.352  12.464   5.329  1.00  0.00     0.219 HD
ENDBRANCH   3   9
TORSDOF 1
ENDMDL
MODEL 3
REMARK VINA RESULT:      -4.2      1.866      2.208
REMARK  1 active torsions:
REMARK  status: ('A' for Active; 'I' for Inactive)
REMARK    1  A    between atoms: C_3  and  O_5 
ROOT
HETATM    1  N   UNL     1      62.499   9.994   4.307  1.00  0.00    -0.341 N 
ATOM      2  HN  UNL     1      62.709   9.959   5.304  1.00  0.00     0.167 HD
HETATM    3  C   UNL     1      62.080  11.121   3.709  1.00  0.00     0.140 A 
HETATM    4  C   UNL     1      62.628   8.906   3.511  1.00  0.00     0.007 A 
HETATM    5  C   UNL     1      61.917  10.132   1.570  1.00  0.00     0.006 A 
HETATM    6  C   UNL     1      61.773  11.254   2.373  1.00  0.00     0.056 A 
HETATM    7  C   UNL     1      62.352   8.937   2.144  1.00  0.00     0.025 A 
HETATM    8  C   UNL     1      63.068   7.627   4.156  1.00  0.00     0.068 C 
ENDROOT
BRANCH   3   9
HETATM    9  O   UNL     1      61.974  12.180   4.549  1.00  0.00    -0.346 OA
HETATM   10  H   UNL     1      62.564  12.265   5.272  1.00  0.00     0.219 HD
ENDBRANCH   3   9
TORSDOF 1
ENDMDL
MODEL 4
REMARK VINA RESULT:      -4.2      1.547      2.727
REMARK  1 active torsions:
REMARK  status: ('A' for Active; 'I' for Inactive)
REMARK    1  A    between atoms: C_3  and  O_5 
ROOT
HETATM    1  N   UNL     1      62.414  11.574   4.356  1.00  0.00    -0.341 N 
ATOM      2  HN  UNL     1      62.335  12.582   4.484  1.00  0.00     0.167 HD
HETATM    3  C   UNL     1      62.882  10.770   5.324  1.00  0.00     0.140 A 
HETATM    4  C   UNL     1      62.051  10.970   3.199  1.00  0.00     0.007 A 
HETATM    5  C   UNL     1      62.641   8.800   4.043  1.00  0.00     0.006 A 
HETATM    6  C   UNL     1      63.024   9.403   5.233  1.00  0.00     0.056 A 
HETATM    7  C   UNL     1      62.146   9.592   3.008  1.00  0.00     0.025 A 
HETATM    8  C   UNL     1      61.550  11.847   2.091  1.00  0.00     0.068 C 
ENDROOT
BRANCH   3   9
HETATM    9  O   UNL     1      63.224  11.424   6.461  1.00  0.00    -0.346 OA
HETATM   10  H   UNL     1      62.642  12.058   6.829  1.00  0.00     0.219 HD
ENDBRANCH   3   9
TORSDOF 1
ENDMDL
MODEL 5
REMARK VINA RESULT:      -3.9      1.728      2.364
REMARK  1 active torsions:
REMARK  status: ('A' for Active; 'I' for Inactive)
REMARK    1  A    between atoms: C_3  and  O_5 
ROOT
HETATM    1  N   UNL     1      63.027   8.858   3.696  1.00  0.00    -0.341 N 
ATOM      2  HN  UNL     1      63.343   7.921   3.448  1.00  0.00     0.167 HD
HETATM    3  C   UNL     1      63.282   9.397   4.899  1.00  0.00     0.140 A 
HETATM    4  C   UNL     1      62.325   9.628   2.831  1.00  0.00     0.007 A 
HETATM    5  C   UNL     1      62.178  11.428   4.415  1.00  0.00     0.006 A 
HETATM    6  C   UNL     1      62.890  10.649   5.317  1.00  0.00     0.056 A 
HETATM    7  C   UNL     1      61.890  10.914   3.151  1.00  0.00     0.025 A 
HETATM    8  C   UNL     1      62.002   9.041   1.490  1.00  0.00     0.068 C 
ENDROOT
BRANCH   3   9
HETATM    9  O   UNL     1      63.991   8.587   5.723  1.00  0.00    -0.346 OA
HETATM   10  H   UNL     1      63.675   8.404   6.585  1.00  0.00     0.219 HD
ENDBRANCH   3   9
TORSDOF 1
ENDMDL
MODEL 6
REMARK VINA RESULT:      -3.6      2.328      2.647
REMARK  1 active torsions:
REMARK  status: ('A' for Active; 'I' for Inactive)
REMARK    1  A    between atoms: C_3  and  O_5 
ROOT
HETATM    1  N   UNL     1      62.633   8.913   2.878  1.00  0.00    -0.341 N 
ATOM      2  HN  UNL     1      62.487   8.386   2.017  1.00  0.00     0.167 HD
HETATM    3  C   UNL     1      62.064  10.111   3.082  1.00  0.00     0.140 A 
HETATM    4  C   UNL     1      63.414   8.442   3.879  1.00  0.00     0.007 A 
HETATM    5  C   UNL     1      63.009  10.387   5.230  1.00  0.00     0.006 A 
HETATM    6  C   UNL     1      62.211  10.888   4.210  1.00  0.00     0.056 A 
HETATM    7  C   UNL     1      63.621   9.145   5.066  1.00  0.00     0.025 A 
HETATM    8  C   UNL     1      64.085   7.119   3.667  1.00  0.00     0.068 C 
ENDROOT
BRANCH   3   9
HETATM    9  O   UNL     1      61.288  10.532   2.053  1.00  0.00    -0.346 OA
HETATM   10  H   UNL     1      61.585  10.429   1.171  1.00  0.00     0.219 HD
ENDBRANCH   3   9
TORSDOF 1
ENDMDL
MODEL 7
REMARK VINA RESULT:      -3.6      3.723      5.054
REMARK  1 active torsions:
REMARK  status: ('A' for Active; 'I' for Inactive)
REMARK    1  A    between atoms: C_3  and  O_5 
ROOT
HETATM    1  N   UNL     1      65.925   7.623   7.187  1.00  0.00    -0.341 N 
ATOM      2  HN  UNL     1      65.267   8.004   7.867  1.00  0.00     0.167 HD
HETATM    3  C   UNL     1      66.036   8.128   5.949  1.00  0.00     0.140 A 
HETATM    4  C   UNL     1      66.733   6.578   7.483  1.00  0.00     0.007 A 
HETATM    5  C   UNL     1      67.719   6.606   5.293  1.00  0.00     0.006 A 
HETATM    6  C   UNL     1      66.892   7.673   4.971  1.00  0.00     0.056 A 
HETATM    7  C   UNL     1      67.643   6.048   6.569  1.00  0.00     0.025 A 
HETATM    8  C   UNL     1      66.611   5.976   8.851  1.00  0.00     0.068 C 
ENDROOT
BRANCH   3   9
HETATM    9  O   UNL     1      65.209   9.174   5.707  1.00  0.00    -0.346 OA
HETATM   10  H   UNL     1      65.013   9.784   6.391  1.00  0.00     0.219 HD
ENDBRANCH   3   9
TORSDOF 1
ENDMDL
MODEL 8
REMARK VINA RESULT:      -3.5      2.924      3.674
REMARK  1 active torsions:
REMARK  status: ('A' for Active; 'I' for Inactive)
REMARK    1  A    between atoms: C_3  and  O_5 
ROOT
HETATM    1  N   UNL     1      62.858   8.640   3.409  1.00  0.00    -0.341 N 
ATOM      2  HN  UNL     1      63.264   7.894   3.972  1.00  0.00     0.167 HD
HETATM    3  C   UNL     1      62.576   8.472   2.107  1.00  0.00     0.140 A 
HETATM    4  C   UNL     1      62.572   9.856   3.931  1.00  0.00     0.007 A 
HETATM    5  C   UNL     1      61.739  10.663   1.828  1.00  0.00     0.006 A 
HETATM    6  C   UNL     1      62.032   9.425   1.274  1.00  0.00     0.056 A 
HETATM    7  C   UNL     1      62.010  10.886   3.177  1.00  0.00     0.025 A 
HETATM    8  C   UNL     1      62.902  10.081   5.376  1.00  0.00     0.068 C 
ENDROOT
BRANCH   3   9
HETATM    9  O   UNL     1      62.875   7.237   1.636  1.00  0.00    -0.346 OA
HETATM   10  H   UNL     1      62.499   6.939   0.832  1.00  0.00     0.219 HD
ENDBRANCH   3   9
TORSDOF 1
ENDMDL
MODEL 9
REMARK VINA RESULT:      -3.4      3.163      4.695
REMARK  1 active torsions:
REMARK  status: ('A' for Active; 'I' for Inactive)
REMARK    1  A    between atoms: C_3  and  O_5 
ROOT
HETATM    1  N   UNL     1      65.828   8.044   6.560  1.00  0.00    -0.341 N 
ATOM      2  HN  UNL     1      65.340   8.648   7.220  1.00  0.00     0.167 HD
HETATM    3  C   UNL     1      66.907   7.329   6.917  1.00  0.00     0.140 A 
HETATM    4  C   UNL     1      65.426   7.919   5.273  1.00  0.00     0.007 A 
HETATM    5  C   UNL     1      67.195   6.372   4.776  1.00  0.00     0.006 A 
HETATM    6  C   UNL     1      67.626   6.494   6.090  1.00  0.00     0.056 A 
HETATM    7  C   UNL     1      66.077   7.093   4.358  1.00  0.00     0.025 A 
HETATM    8  C   UNL     1      64.240   8.727   4.839  1.00  0.00     0.068 C 
ENDROOT
BRANCH   3   9
HETATM    9  O   UNL     1      67.263   7.486   8.215  1.00  0.00    -0.346 OA
HETATM   10  H   UNL     1      66.604   7.605   8.870  1.00  0.00     0.219 HD
ENDBRANCH   3   9
TORSDOF 1
ENDMDL
