MODEL 1
REMARK VINA RESULT:      -4.4      0.000      0.000
REMARK  3 active torsions:
REMARK  status: ('A' for Active; 'I' for Inactive)
REMARK    1  A    between atoms: C_1  and  C_3 
REMARK    2  A    between atoms: C_2  and  N_8 
REMARK    3  A    between atoms: C_3  and  O_9 
ROOT
HETATM    1  C   UNL     1      63.516   9.371   4.904  1.00  0.00     0.106 A 
HETATM    2  C   UNL     1      63.170  10.664   5.260  1.00  0.00     0.049 A 
HETATM    3  S   UNL     1      62.651   8.884   3.495  1.00  0.00    -0.094 SA
HETATM    4  C   UNL     1      62.209  11.243   4.388  1.00  0.00     0.038 A 
HETATM    5  C   UNL     1      61.838  10.382   3.382  1.00  0.00     0.053 A 
ENDROOT
BRANCH   1   6
HETATM    6  C   UNL     1      64.440   8.426   5.505  1.00  0.00     0.302 C 
HETATM    7  O   UNL     1      64.276   7.215   5.618  1.00  0.00    -0.259 OA
BRANCH   6   8
HETATM    8  O   UNL     1      65.564   9.073   5.949  1.00  0.00    -0.322 OA
HETATM    9  C   UNL     1      66.597   8.210   6.427  1.00  0.00     0.213 C 
ENDBRANCH   6   8
ENDBRANCH   1   6
BRANCH   2  10
HETATM   10  N   UNL     1      63.668  11.338   6.314  1.00  0.00    -0.398 N 
HETATM   11  H   UNL     1      63.062  11.826   6.917  1.00  0.00     0.156 HD
HETATM   12  H   UNL     1      64.638  11.343   6.481  1.00  0.00     0.156 HD
ENDBRANCH   2  10
TORSDOF 3
ENDMDL
MODEL 2
REMARK VINA RESULT:      -4.0      1.156      1.641
REMARK  3 active torsions:
REMARK  status: ('A' for Active; 'I' for Inactive)
REMARK    1  A    between atoms: C_1  and  C_3 
REMARK    2  A    between atoms: C_2  and  N_8 
REMARK    3  A    between atoms: C_3  and  O_9 
ROOT
HETATM    1  C   UNL     1      63.256   9.410   4.656  1.00  0.00     0.106 A 
HETATM    2  C   UNL     1      62.932  10.685   5.090  1.00  0.00     0.049 A 
HETATM    3  S   UNL     1      62.509   9.084   3.138  1.00  0.00    -0.094 SA
HETATM    4  C   UNL     1      62.083  11.381   4.188  1.00  0.00     0.038 A 
HETATM    5  C   UNL     1      61.773  10.625   3.082  1.00  0.00     0.053 A 
ENDROOT
BRANCH   1   6
HETATM    6  C   UNL     1      64.079   8.374   5.254  1.00  0.00     0.302 C 
HETATM    7  O   UNL     1      65.117   7.907   4.794  1.00  0.00    -0.259 OA
BRANCH   6   8
HETATM    8  O   UNL     1      63.536   7.960   6.444  1.00  0.00    -0.322 OA
HETATM    9  C   UNL     1      62.459   7.032   6.314  1.00  0.00     0.213 C 
ENDBRANCH   6   8
ENDBRANCH   1   6
BRANCH   2  10
HETATM   10  N   UNL     1      63.357  11.244   6.239  1.00  0.00    -0.398 N 
HETATM   11  H   UNL     1      64.075  10.815   6.759  1.00  0.00     0.156 HD
HETATM   12  H   UNL     1      62.952  12.082   6.558  1.00  0.00     0.156 HD
ENDBRANCH   2  10
TORSDOF 3
ENDMDL
MODEL 3
REMARK VINA RESULT:      -3.7      2.462      3.832
REMARK  3 active torsions:
REMARK  status: ('A' for Active; 'I' for Inactive)
REMARK    1  A    between atoms: C_1  and  C_3 
REMARK    2  A    between atoms: C_2  and  N_8 
REMARK    3  A    between atoms: C_3  and  O_9 
ROOT
HETATM    1  C   UNL     1      62.873   8.801   4.115  1.00  0.00     0.106 A 
HETATM    2  C   UNL     1      63.752   9.292   5.066  1.00  0.00     0.049 A 
HETATM    3  S   UNL     1      63.514   7.379   3.382  1.00  0.00    -0.094 SA
HETATM    4  C   UNL     1      64.933   8.512   5.188  1.00  0.00     0.038 A 
HETATM    5  C   UNL     1      64.935   7.439   4.327  1.00  0.00     0.053 A 
ENDROOT
BRANCH   1   6
HETATM    6  C   UNL     1      61.574   9.277   3.673  1.00  0.00     0.302 C 
HETATM    7  O   UNL     1      60.636   8.588   3.283  1.00  0.00    -0.259 OA
BRANCH   6   8
HETATM    8  O   UNL     1      61.517  10.646   3.746  1.00  0.00    -0.322 OA
HETATM    9  C   UNL     1      61.810  11.318   2.521  1.00  0.00     0.213 C 
ENDBRANCH   6   8
ENDBRANCH   1   6
BRANCH   2  10
HETATM   10  N   UNL     1      63.547  10.390   5.818  1.00  0.00    -0.398 N 
HETATM   11  H   UNL     1      62.684  10.520   6.274  1.00  0.00     0.156 HD
HETATM   12  H   UNL     1      64.260  11.063   5.913  1.00  0.00     0.156 HD
ENDBRANCH   2  10
TORSDOF 3
ENDMDL
MODEL 4
REMARK VINA RESULT:      -3.6      2.040      2.572
REMARK  3 active torsions:
REMARK  status: ('A' for Active; 'I' for Inactive)
REMARK    1  A    between atoms: C_1  and  C_3 
REMARK    2  A    between atoms: C_2  and  N_8 
REMARK    3  A    between atoms: C_3  and  O_9 
ROOT
HETATM    1  C   UNL     1      62.735   9.168   3.574  1.00  0.00     0.106 A 
HETATM    2  C   UNL     1      62.067  10.076   2.769  1.00  0.00     0.049 A 
HETATM    3  S   UNL     1      62.983   7.685   2.732  1.00  0.00    -0.094 SA
HETATM    4  C   UNL     1      61.764   9.559   1.480  1.00  0.00     0.038 A 
HETATM    5  C   UNL     1      62.205   8.265   1.326  1.00  0.00     0.053 A 
ENDROOT
BRANCH   1   6
HETATM    6  C   UNL     1      63.225   9.275   4.937  1.00  0.00     0.302 C 
HETATM    7  O   UNL     1      63.065  10.223   5.700  1.00  0.00    -0.259 OA
BRANCH   6   8
HETATM    8  O   UNL     1      63.919   8.144   5.285  1.00  0.00    -0.322 OA
HETATM    9  C   UNL     1      65.315   8.348   5.503  1.00  0.00     0.213 C 
ENDBRANCH   6   8
ENDBRANCH   1   6
BRANCH   2  10
HETATM   10  N   UNL     1      61.723  11.326   3.129  1.00  0.00    -0.398 N 
HETATM   11  H   UNL     1      61.989  11.675   4.011  1.00  0.00     0.156 HD
HETATM   12  H   UNL     1      61.207  11.893   2.512  1.00  0.00     0.156 HD
ENDBRANCH   2  10
TORSDOF 3
ENDMDL
MODEL 5
REMARK VINA RESULT:      -3.6      2.304      2.582
REMARK  3 active torsions:
REMARK  status: ('A' for Active; 'I' for Inactive)
REMARK    1  A    between atoms: C_1  and  C_3 
REMARK    2  A    between atoms: C_2  and  N_8 
REMARK    3  A    between atoms: C_3  and  O_9 
ROOT
HETATM    1  C   UNL     1      62.892   9.152   4.014  1.00  0.00     0.106 A 
HETATM    2  C   UNL     1      62.879   8.419   2.839  1.00  0.00     0.049 A 
HETATM    3  S   UNL     1      62.124  10.677   3.780  1.00  0.00    -0.094 SA
HETATM    4  C   UNL     1      62.248   9.101   1.764  1.00  0.00     0.038 A 
HETATM    5  C   UNL     1      61.791  10.344   2.138  1.00  0.00     0.053 A 
ENDROOT
BRANCH   1   6
HETATM    6  C   UNL     1      63.424   8.845   5.330  1.00  0.00     0.302 C 
HETATM    7  O   UNL     1      62.827   8.295   6.250  1.00  0.00    -0.259 OA
BRANCH   6   8
HETATM    8  O   UNL     1      64.728   9.261   5.427  1.00  0.00    -0.322 OA
HETATM    9  C   UNL     1      65.671   8.211   5.647  1.00  0.00     0.213 C 
ENDBRANCH   6   8
ENDBRANCH   1   6
BRANCH   2  10
HETATM   10  N   UNL     1      63.398   7.185   2.689  1.00  0.00    -0.398 N 
HETATM   11  H   UNL     1      63.142   6.635   1.913  1.00  0.00     0.156 HD
HETATM   12  H   UNL     1      64.033   6.833   3.354  1.00  0.00     0.156 HD
ENDBRANCH   2  10
TORSDOF 3
ENDMDL
MODEL 6
REMARK VINA RESULT:      -3.6      3.103      4.357
REMARK  3 active torsions:
REMARK  status: ('A' for Active; 'I' for Inactive)
REMARK    1  A    between atoms: C_1  and  C_3 
REMARK    2  A    between atoms: C_2  and  N_8 
REMARK    3  A    between atoms: C_3  and  O_9 
ROOT
HETATM    1  C   UNL     1      62.370   9.397   2.994  1.00  0.00     0.106 A 
HETATM    2  C   UNL     1      62.015  10.725   3.162  1.00  0.00     0.049 A 
HETATM    3  S   UNL     1      63.052   8.768   4.446  1.00  0.00    -0.094 SA
HETATM    4  C   UNL     1      62.301  11.216   4.464  1.00  0.00     0.038 A 
HETATM    5  C   UNL     1      62.870  10.254   5.267  1.00  0.00     0.053 A 
ENDROOT
BRANCH   1   6
HETATM    6  C   UNL     1      62.259   8.513   1.847  1.00  0.00     0.302 C 
HETATM    7  O   UNL     1      62.865   7.460   1.673  1.00  0.00    -0.259 OA
BRANCH   6   8
HETATM    8  O   UNL     1      61.360   9.015   0.941  1.00  0.00    -0.322 OA
HETATM    9  C   UNL     1      60.201   8.205   0.744  1.00  0.00     0.213 C 
ENDBRANCH   6   8
ENDBRANCH   1   6
BRANCH   2  10
HETATM   10  N   UNL     1      61.455  11.504   2.218  1.00  0.00    -0.398 N 
HETATM   11  H   UNL     1      61.236  11.127   1.335  1.00  0.00     0.156 HD
HETATM   12  H   UNL     1      61.264  12.450   2.409  1.00  0.00     0.156 HD
ENDBRANCH   2  10
TORSDOF 3
ENDMDL
MODEL 7
REMARK VINA RESULT:      -3.6      1.535      1.976
REMARK  3 active torsions:
REMARK  status: ('A' for Active; 'I' for Inactive)
REMARK    1  A    between atoms: C_1  and  C_3 
REMARK    2  A    between atoms: C_2  and  N_8 
REMARK    3  A    between atoms: C_3  and  O_9 
ROOT
HETATM    1  C   UNL     1      64.448   8.354   4.888  1.00  0.00     0.106 A 
HETATM    2  C   UNL     1      63.509   9.372   4.881  1.00  0.00     0.049 A 
HETATM    3  S   UNL     1      64.122   7.228   3.625  1.00  0.00    -0.094 SA
HETATM    4  C   UNL     1      62.539   9.228   3.853  1.00  0.00     0.038 A 
HETATM    5  C   UNL     1      62.754   8.100   3.094  1.00  0.00     0.053 A 
ENDROOT
BRANCH   1   6
HETATM    6  C   UNL     1      65.591   8.110   5.749  1.00  0.00     0.302 C 
HETATM    7  O   UNL     1      66.162   8.933   6.458  1.00  0.00    -0.259 OA
BRANCH   6   8
HETATM    8  O   UNL     1      65.975   6.795   5.672  1.00  0.00    -0.322 OA
HETATM    9  C   UNL     1      66.332   6.207   6.924  1.00  0.00     0.213 C 
ENDBRANCH   6   8
ENDBRANCH   1   6
BRANCH   2  10
HETATM   10  N   UNL     1      63.484  10.410   5.739  1.00  0.00    -0.398 N 
HETATM   11  H   UNL     1      64.302  10.931   5.905  1.00  0.00     0.156 HD
HETATM   12  H   UNL     1      62.647  10.647   6.200  1.00  0.00     0.156 HD
ENDBRANCH   2  10
TORSDOF 3
ENDMDL
MODEL 8
REMARK VINA RESULT:      -3.5      3.609      5.619
REMARK  3 active torsions:
REMARK  status: ('A' for Active; 'I' for Inactive)
REMARK    1  A    between atoms: C_1  and  C_3 
REMARK    2  A    between atoms: C_2  and  N_8 
REMARK    3  A    between atoms: C_3  and  O_9 
ROOT
HETATM    1  C   UNL     1      66.734   6.746   6.137  1.00  0.00     0.106 A 
HETATM    2  C   UNL     1      67.191   5.898   5.141  1.00  0.00     0.049 A 
HETATM    3  S   UNL     1      66.514   5.879   7.610  1.00  0.00    -0.094 SA
HETATM    4  C   UNL     1      67.355   4.558   5.583  1.00  0.00     0.038 A 
HETATM    5  C   UNL     1      67.021   4.406   6.909  1.00  0.00     0.053 A 
ENDROOT
BRANCH   1   6
HETATM    6  C   UNL     1      66.433   8.166   6.123  1.00  0.00     0.302 C 
HETATM    7  O   UNL     1      66.675   8.974   7.015  1.00  0.00    -0.259 OA
BRANCH   6   8
HETATM    8  O   UNL     1      65.820   8.513   4.946  1.00  0.00    -0.322 OA
HETATM    9  C   UNL     1      64.416   8.748   5.055  1.00  0.00     0.213 C 
ENDBRANCH   6   8
ENDBRANCH   1   6
BRANCH   2  10
HETATM   10  N   UNL     1      67.463   6.265   3.874  1.00  0.00    -0.398 N 
HETATM   11  H   UNL     1      66.799   6.112   3.164  1.00  0.00     0.156 HD
HETATM   12  H   UNL     1      68.325   6.688   3.658  1.00  0.00     0.156 HD
ENDBRANCH   2  10
TORSDOF 3
ENDMDL
MODEL 9
REMARK VINA RESULT:      -3.4      2.857      3.480
REMARK  3 active torsions:
REMARK  status: ('A' for Active; 'I' for Inactive)
REMARK    1  A    between atoms: C_1  and  C_3 
REMARK    2  A    between atoms: C_2  and  N_8 
REMARK    3  A    between atoms: C_3  and  O_9 
ROOT
HETATM    1  C   UNL     1      62.657   9.283   3.412  1.00  0.00     0.106 A 
HETATM    2  C   UNL     1      62.062  10.529   3.309  1.00  0.00     0.049 A 
HETATM    3  S   UNL     1      63.410   9.101   4.952  1.00  0.00    -0.094 SA
HETATM    4  C   UNL     1      62.223  11.321   4.478  1.00  0.00     0.038 A 
HETATM    5  C   UNL     1      62.940  10.665   5.452  1.00  0.00     0.053 A 
ENDROOT
BRANCH   1   6
HETATM    6  C   UNL     1      62.737   8.178   2.473  1.00  0.00     0.302 C 
HETATM    7  O   UNL     1      62.077   8.041   1.447  1.00  0.00    -0.259 OA
BRANCH   6   8
HETATM    8  O   UNL     1      63.675   7.266   2.886  1.00  0.00    -0.322 OA
HETATM    9  C   UNL     1      63.731   6.075   2.101  1.00  0.00     0.213 C 
ENDBRANCH   6   8
ENDBRANCH   1   6
BRANCH   2  10
HETATM   10  N   UNL     1      61.391  10.982   2.233  1.00  0.00    -0.398 N 
HETATM   11  H   UNL     1      60.606  11.564   2.352  1.00  0.00     0.156 HD
HETATM   12  H   UNL     1      61.685  10.731   1.328  1.00  0.00     0.156 HD
ENDBRANCH   2  10
TORSDOF 3
ENDMDL
