MODEL 1
REMARK VINA RESULT:      -5.1      0.000      0.000
REMARK  3 active torsions:
REMARK  status: ('A' for Active; 'I' for Inactive)
REMARK    1  A    between atoms: C_1  and  C_3 
REMARK    2  A    between atoms: C_2  and  C_3 
REMARK    3  A    between atoms: C_4  and  O_7 
ROOT
HETATM    1  C   UNL     1      62.485   9.734   3.992  1.00  0.00    -0.015 A 
HETATM    2  C   UNL     1      62.120  11.011   3.543  1.00  0.00     0.072 A 
HETATM    3  C   UNL     1      62.544   8.696   3.045  1.00  0.00     0.010 A 
HETATM    4  C   UNL     1      61.817  11.248   2.203  1.00  0.00     0.037 A 
HETATM    5  C   UNL     1      62.233   8.929   1.703  1.00  0.00     0.001 A 
HETATM    6  C   UNL     1      61.866  10.204   1.283  1.00  0.00     0.003 A 
ENDROOT
BRANCH   1   7
HETATM    7  C   UNL     1      62.866   9.447   5.424  1.00  0.00     0.154 C 
BRANCH   7   8
HETATM    8  C   UNL     1      64.281   9.860   5.761  1.00  0.00     0.177 C 
HETATM    9  O   UNL     1      65.246   9.117   5.626  1.00  0.00    -0.648 OA
HETATM   10  O   UNL     1      64.408  11.119   6.234  1.00  0.00    -0.648 OA
ENDBRANCH   7   8
ENDBRANCH   1   7
BRANCH   2  11
HETATM   11  O   UNL     1      62.056  12.098   4.369  1.00  0.00    -0.360 OA
HETATM   12  H   UNL     1      62.723  12.755   4.332  1.00  0.00     0.217 HD
ENDBRANCH   2  11
TORSDOF 3
ENDMDL
MODEL 2
REMARK VINA RESULT:      -4.8      1.960      2.458
REMARK  3 active torsions:
REMARK  status: ('A' for Active; 'I' for Inactive)
REMARK    1  A    between atoms: C_1  and  C_3 
REMARK    2  A    between atoms: C_2  and  C_3 
REMARK    3  A    between atoms: C_4  and  O_7 
ROOT
HETATM    1  C   UNL     1      62.815   9.141   3.998  1.00  0.00    -0.015 A 
HETATM    2  C   UNL     1      62.604  10.390   4.599  1.00  0.00     0.072 A 
HETATM    3  C   UNL     1      62.464   8.993   2.645  1.00  0.00     0.010 A 
HETATM    4  C   UNL     1      62.057  11.453   3.882  1.00  0.00     0.037 A 
HETATM    5  C   UNL     1      61.909  10.055   1.926  1.00  0.00     0.001 A 
HETATM    6  C   UNL     1      61.701  11.284   2.546  1.00  0.00     0.003 A 
ENDROOT
BRANCH   1   7
HETATM    7  C   UNL     1      63.447   7.980   4.726  1.00  0.00     0.154 C 
BRANCH   7   8
HETATM    8  C   UNL     1      62.577   7.419   5.828  1.00  0.00     0.177 C 
HETATM    9  O   UNL     1      62.672   7.766   7.000  1.00  0.00    -0.648 OA
HETATM   10  O   UNL     1      61.681   6.491   5.427  1.00  0.00    -0.648 OA
ENDBRANCH   7   8
ENDBRANCH   1   7
BRANCH   2  11
HETATM   11  O   UNL     1      62.932  10.654   5.898  1.00  0.00    -0.360 OA
HETATM   12  H   UNL     1      62.686  10.055   6.575  1.00  0.00     0.217 HD
ENDBRANCH   2  11
TORSDOF 3
ENDMDL
MODEL 3
REMARK VINA RESULT:      -4.7      1.728      2.372
REMARK  3 active torsions:
REMARK  status: ('A' for Active; 'I' for Inactive)
REMARK    1  A    between atoms: C_1  and  C_3 
REMARK    2  A    between atoms: C_2  and  C_3 
REMARK    3  A    between atoms: C_4  and  O_7 
ROOT
HETATM    1  C   UNL     1      62.748   9.355   3.981  1.00  0.00    -0.015 A 
HETATM    2  C   UNL     1      62.636   8.851   2.678  1.00  0.00     0.072 A 
HETATM    3  C   UNL     1      62.333  10.679   4.213  1.00  0.00     0.010 A 
HETATM    4  C   UNL     1      62.137   9.636   1.639  1.00  0.00     0.037 A 
HETATM    5  C   UNL     1      61.840  11.470   3.172  1.00  0.00     0.001 A 
HETATM    6  C   UNL     1      61.746  10.950   1.884  1.00  0.00     0.003 A 
ENDROOT
BRANCH   1   7
HETATM    7  C   UNL     1      63.238   8.523   5.141  1.00  0.00     0.154 C 
BRANCH   7   8
HETATM    8  C   UNL     1      64.740   8.351   5.161  1.00  0.00     0.177 C 
HETATM    9  O   UNL     1      65.325   7.495   4.507  1.00  0.00    -0.648 OA
HETATM   10  O   UNL     1      65.400   9.212   5.965  1.00  0.00    -0.648 OA
ENDBRANCH   7   8
ENDBRANCH   1   7
BRANCH   2  11
HETATM   11  O   UNL     1      62.983   7.572   2.344  1.00  0.00    -0.360 OA
HETATM   12  H   UNL     1      62.536   7.132   1.649  1.00  0.00     0.217 HD
ENDBRANCH   2  11
TORSDOF 3
ENDMDL
MODEL 4
REMARK VINA RESULT:      -4.4      2.416      3.074
REMARK  3 active torsions:
REMARK  status: ('A' for Active; 'I' for Inactive)
REMARK    1  A    between atoms: C_1  and  C_3 
REMARK    2  A    between atoms: C_2  and  C_3 
REMARK    3  A    between atoms: C_4  and  O_7 
ROOT
HETATM    1  C   UNL     1      62.800   8.811   3.622  1.00  0.00    -0.015 A 
HETATM    2  C   UNL     1      62.566   8.652   2.249  1.00  0.00     0.072 A 
HETATM    3  C   UNL     1      62.486  10.052   4.204  1.00  0.00     0.010 A 
HETATM    4  C   UNL     1      62.044   9.691   1.480  1.00  0.00     0.037 A 
HETATM    5  C   UNL     1      61.970  11.097   3.433  1.00  0.00     0.001 A 
HETATM    6  C   UNL     1      61.753  10.918   2.070  1.00  0.00     0.003 A 
ENDROOT
BRANCH   1   7
HETATM    7  C   UNL     1      63.319   7.698   4.498  1.00  0.00     0.154 C 
BRANCH   7   8
HETATM    8  C   UNL     1      62.477   7.465   5.733  1.00  0.00     0.177 C 
HETATM    9  O   UNL     1      62.826   7.806   6.856  1.00  0.00    -0.648 OA
HETATM   10  O   UNL     1      61.301   6.839   5.507  1.00  0.00    -0.648 OA
ENDBRANCH   7   8
ENDBRANCH   1   7
BRANCH   2  11
HETATM   11  O   UNL     1      62.809   7.483   1.585  1.00  0.00    -0.360 OA
HETATM   12  H   UNL     1      63.448   6.882   1.914  1.00  0.00     0.217 HD
ENDBRANCH   2  11
TORSDOF 3
ENDMDL
MODEL 5
REMARK VINA RESULT:      -4.2      1.621      2.033
REMARK  3 active torsions:
REMARK  status: ('A' for Active; 'I' for Inactive)
REMARK    1  A    between atoms: C_1  and  C_3 
REMARK    2  A    between atoms: C_2  and  C_3 
REMARK    3  A    between atoms: C_4  and  O_7 
ROOT
HETATM    1  C   UNL     1      62.683   8.959   3.864  1.00  0.00    -0.015 A 
HETATM    2  C   UNL     1      61.924   9.870   3.116  1.00  0.00     0.072 A 
HETATM    3  C   UNL     1      63.166   7.811   3.210  1.00  0.00     0.010 A 
HETATM    4  C   UNL     1      61.649   9.646   1.768  1.00  0.00     0.037 A 
HETATM    5  C   UNL     1      62.885   7.581   1.861  1.00  0.00     0.001 A 
HETATM    6  C   UNL     1      62.123   8.497   1.141  1.00  0.00     0.003 A 
ENDROOT
BRANCH   1   7
HETATM    7  C   UNL     1      63.043   9.187   5.311  1.00  0.00     0.154 C 
BRANCH   7   8
HETATM    8  C   UNL     1      63.146   7.908   6.112  1.00  0.00     0.177 C 
HETATM    9  O   UNL     1      62.169   7.273   6.490  1.00  0.00    -0.648 OA
HETATM   10  O   UNL     1      64.407   7.514   6.391  1.00  0.00    -0.648 OA
ENDBRANCH   7   8
ENDBRANCH   1   7
BRANCH   2  11
HETATM   11  O   UNL     1      61.428  11.029   3.641  1.00  0.00    -0.360 OA
HETATM   12  H   UNL     1      60.542  11.281   3.468  1.00  0.00     0.217 HD
ENDBRANCH   2  11
TORSDOF 3
ENDMDL
MODEL 6
REMARK VINA RESULT:      -4.1      2.760      4.389
REMARK  3 active torsions:
REMARK  status: ('A' for Active; 'I' for Inactive)
REMARK    1  A    between atoms: C_1  and  C_3 
REMARK    2  A    between atoms: C_2  and  C_3 
REMARK    3  A    between atoms: C_4  and  O_7 
ROOT
HETATM    1  C   UNL     1      62.268   9.090   2.701  1.00  0.00    -0.015 A 
HETATM    2  C   UNL     1      62.146  10.061   3.706  1.00  0.00     0.072 A 
HETATM    3  C   UNL     1      63.146   8.015   2.927  1.00  0.00     0.010 A 
HETATM    4  C   UNL     1      62.876   9.970   4.890  1.00  0.00     0.037 A 
HETATM    5  C   UNL     1      63.884   7.926   4.110  1.00  0.00     0.001 A 
HETATM    6  C   UNL     1      63.752   8.906   5.090  1.00  0.00     0.003 A 
ENDROOT
BRANCH   1   7
HETATM    7  C   UNL     1      61.461   9.127   1.426  1.00  0.00     0.154 C 
BRANCH   7   8
HETATM    8  C   UNL     1      60.342   8.110   1.397  1.00  0.00     0.177 C 
HETATM    9  O   UNL     1      59.655   7.841   2.375  1.00  0.00    -0.648 OA
HETATM   10  O   UNL     1      60.154   7.507   0.203  1.00  0.00    -0.648 OA
ENDBRANCH   7   8
ENDBRANCH   1   7
BRANCH   2  11
HETATM   11  O   UNL     1      61.305  11.132   3.605  1.00  0.00    -0.360 OA
HETATM   12  H   UNL     1      61.312  11.798   4.264  1.00  0.00     0.217 HD
ENDBRANCH   2  11
TORSDOF 3
ENDMDL
MODEL 7
REMARK VINA RESULT:      -4.0      3.290      4.883
REMARK  3 active torsions:
REMARK  status: ('A' for Active; 'I' for Inactive)
REMARK    1  A    between atoms: C_1  and  C_3 
REMARK    2  A    between atoms: C_2  and  C_3 
REMARK    3  A    between atoms: C_4  and  O_7 
ROOT
HETATM    1  C   UNL     1      64.936   7.659   4.588  1.00  0.00    -0.015 A 
HETATM    2  C   UNL     1      65.969   8.061   5.446  1.00  0.00     0.072 A 
HETATM    3  C   UNL     1      65.182   6.579   3.722  1.00  0.00     0.010 A 
HETATM    4  C   UNL     1      67.206   7.417   5.439  1.00  0.00     0.037 A 
HETATM    5  C   UNL     1      66.423   5.937   3.708  1.00  0.00     0.001 A 
HETATM    6  C   UNL     1      67.436   6.359   4.564  1.00  0.00     0.003 A 
ENDROOT
BRANCH   1   7
HETATM    7  C   UNL     1      63.569   8.298   4.598  1.00  0.00     0.154 C 
BRANCH   7   8
HETATM    8  C   UNL     1      62.654   7.740   5.665  1.00  0.00     0.177 C 
HETATM    9  O   UNL     1      62.850   7.896   6.864  1.00  0.00    -0.648 OA
HETATM   10  O   UNL     1      61.598   7.040   5.197  1.00  0.00    -0.648 OA
ENDBRANCH   7   8
ENDBRANCH   1   7
BRANCH   2  11
HETATM   11  O   UNL     1      65.832   9.080   6.346  1.00  0.00    -0.360 OA
HETATM   12  H   UNL     1      66.288   9.046   7.164  1.00  0.00     0.217 HD
ENDBRANCH   2  11
TORSDOF 3
ENDMDL
MODEL 8
REMARK VINA RESULT:      -3.9      3.262      4.443
REMARK  3 active torsions:
REMARK  status: ('A' for Active; 'I' for Inactive)
REMARK    1  A    between atoms: C_1  and  C_3 
REMARK    2  A    between atoms: C_2  and  C_3 
REMARK    3  A    between atoms: C_4  and  O_7 
ROOT
HETATM    1  C   UNL     1      66.095   7.378   4.798  1.00  0.00    -0.015 A 
HETATM    2  C   UNL     1      65.197   8.396   5.154  1.00  0.00     0.072 A 
HETATM    3  C   UNL     1      65.703   6.478   3.791  1.00  0.00     0.010 A 
HETATM    4  C   UNL     1      63.953   8.510   4.536  1.00  0.00     0.037 A 
HETATM    5  C   UNL     1      64.453   6.587   3.176  1.00  0.00     0.001 A 
HETATM    6  C   UNL     1      63.576   7.600   3.552  1.00  0.00     0.003 A 
ENDROOT
BRANCH   1   7
HETATM    7  C   UNL     1      67.468   7.249   5.408  1.00  0.00     0.154 C 
BRANCH   7   8
HETATM    8  C   UNL     1      67.477   6.467   6.704  1.00  0.00     0.177 C 
HETATM    9  O   UNL     1      67.949   5.341   6.804  1.00  0.00    -0.648 OA
HETATM   10  O   UNL     1      66.912   7.103   7.753  1.00  0.00    -0.648 OA
ENDBRANCH   7   8
ENDBRANCH   1   7
BRANCH   2  11
HETATM   11  O   UNL     1      65.483   9.340   6.099  1.00  0.00    -0.360 OA
HETATM   12  H   UNL     1      66.366   9.464   6.385  1.00  0.00     0.217 HD
ENDBRANCH   2  11
TORSDOF 3
ENDMDL
MODEL 9
REMARK VINA RESULT:      -3.9      2.914      4.017
REMARK  3 active torsions:
REMARK  status: ('A' for Active; 'I' for Inactive)
REMARK    1  A    between atoms: C_1  and  C_3 
REMARK    2  A    between atoms: C_2  and  C_3 
REMARK    3  A    between atoms: C_4  and  O_7 
ROOT
HETATM    1  C   UNL     1      62.374   8.884   2.509  1.00  0.00    -0.015 A 
HETATM    2  C   UNL     1      62.452   9.278   3.852  1.00  0.00     0.072 A 
HETATM    3  C   UNL     1      62.050   9.863   1.553  1.00  0.00     0.010 A 
HETATM    4  C   UNL     1      62.211  10.597   4.233  1.00  0.00     0.037 A 
HETATM    5  C   UNL     1      61.801  11.184   1.934  1.00  0.00     0.001 A 
HETATM    6  C   UNL     1      61.878  11.550   3.274  1.00  0.00     0.003 A 
ENDROOT
BRANCH   1   7
HETATM    7  C   UNL     1      62.673   7.478   2.050  1.00  0.00     0.154 C 
BRANCH   7   8
HETATM    8  C   UNL     1      61.549   6.505   2.329  1.00  0.00     0.177 C 
HETATM    9  O   UNL     1      61.351   6.009   3.432  1.00  0.00    -0.648 OA
HETATM   10  O   UNL     1      60.774   6.211   1.263  1.00  0.00    -0.648 OA
ENDBRANCH   7   8
ENDBRANCH   1   7
BRANCH   2  11
HETATM   11  O   UNL     1      62.784   8.418   4.860  1.00  0.00    -0.360 OA
HETATM   12  H   UNL     1      62.870   8.734   5.737  1.00  0.00     0.217 HD
ENDBRANCH   2  11
TORSDOF 3
ENDMDL
