MODEL 1
REMARK VINA RESULT:      -4.4      0.000      0.000
REMARK  0 active torsions:
REMARK  status: ('A' for Active; 'I' for Inactive)
ROOT
HETATM    1  N   UNL     1      59.414   8.074   1.634  1.00  0.00    -0.376 N 
ATOM      2  HN  UNL     1      58.548   8.064   1.095  1.00  0.00     0.164 HD
HETATM    3  N   UNL     1      60.817   8.772   2.927  1.00  0.00    -0.379 N 
ATOM      4  HN  UNL     1      59.856   9.052   2.730  1.00  0.00     0.164 HD
HETATM    5  C   UNL     1      63.644   7.713   3.752  1.00  0.00     0.036 A 
HETATM    6  C   UNL     1      62.385   7.961   3.475  1.00  0.00     0.014 A 
HETATM    7  C   UNL     1      60.836   8.821   0.955  1.00  0.00     0.084 A 
HETATM    8  C   UNL     1      61.383   7.067   2.193  1.00  0.00     0.067 C 
HETATM    9  C   UNL     1      59.447   7.342   3.220  1.00  0.00     0.084 A 
HETATM   10  C   UNL     1      61.732   9.841   3.853  1.00  0.00     0.083 C 
HETATM   11  C   UNL     1      60.876   7.234   4.236  1.00  0.00     0.005 A 
HETATM   12  C   UNL     1      62.387   8.808   1.775  1.00  0.00     0.005 A 
HETATM   13  C   UNL     1      62.898   6.578   2.720  1.00  0.00     0.050 A 
HETATM   14  C   UNL     1      63.208   9.292   4.242  1.00  0.00    -0.003 C 
ENDROOT
TORSDOF 0
ENDMDL
MODEL 2
REMARK VINA RESULT:      -4.3      5.307      6.739
REMARK  0 active torsions:
REMARK  status: ('A' for Active; 'I' for Inactive)
ROOT
HETATM    1  N   UNL     1      64.744   7.867   6.071  1.00  0.00    -0.376 N 
ATOM      2  HN  UNL     1      64.087   8.555   5.703  1.00  0.00     0.164 HD
HETATM    3  N   UNL     1      65.858   6.885   7.458  1.00  0.00    -0.379 N 
ATOM      4  HN  UNL     1      65.089   7.551   7.533  1.00  0.00     0.164 HD
HETATM    5  C   UNL     1      67.997   4.612   7.225  1.00  0.00     0.036 A 
HETATM    6  C   UNL     1      66.965   5.423   7.222  1.00  0.00     0.014 A 
HETATM    7  C   UNL     1      66.437   8.274   6.182  1.00  0.00     0.084 A 
HETATM    8  C   UNL     1      66.173   6.128   5.698  1.00  0.00     0.067 C 
HETATM    9  C   UNL     1      64.155   6.303   6.580  1.00  0.00     0.084 A 
HETATM   10  C   UNL     1      66.711   6.566   8.875  1.00  0.00     0.083 C 
HETATM   11  C   UNL     1      65.174   5.005   7.180  1.00  0.00     0.005 A 
HETATM   12  C   UNL     1      67.646   7.125   6.723  1.00  0.00     0.005 A 
HETATM   13  C   UNL     1      67.315   4.901   5.689  1.00  0.00     0.050 A 
HETATM   14  C   UNL     1      67.841   5.412   8.728  1.00  0.00    -0.003 C 
ENDROOT
TORSDOF 0
ENDMDL
MODEL 3
REMARK VINA RESULT:      -4.2     12.359     13.391
REMARK  0 active torsions:
REMARK  status: ('A' for Active; 'I' for Inactive)
ROOT
HETATM    1  N   UNL     1      55.020   1.351  14.456  1.00  0.00    -0.376 N 
ATOM      2  HN  UNL     1      54.128   1.495  14.930  1.00  0.00     0.164 HD
HETATM    3  N   UNL     1      57.036   1.339  14.205  1.00  0.00    -0.379 N 
ATOM      4  HN  UNL     1      56.441   1.450  15.027  1.00  0.00     0.164 HD
HETATM    5  C   UNL     1      58.855   0.684  11.745  1.00  0.00     0.036 A 
HETATM    6  C   UNL     1      58.013   0.754  12.749  1.00  0.00     0.014 A 
HETATM    7  C   UNL     1      55.727   2.659  13.546  1.00  0.00     0.084 A 
HETATM    8  C   UNL     1      56.164   0.709  12.590  1.00  0.00     0.067 C 
HETATM    9  C   UNL     1      55.812  -0.202  14.571  1.00  0.00     0.084 A 
HETATM   10  C   UNL     1      58.664   1.723  14.405  1.00  0.00     0.083 C 
HETATM   11  C   UNL     1      57.318  -0.612  13.765  1.00  0.00     0.005 A 
HETATM   12  C   UNL     1      57.212   2.473  12.632  1.00  0.00     0.005 A 
HETATM   13  C   UNL     1      57.230   0.360  11.343  1.00  0.00     0.050 A 
HETATM   14  C   UNL     1      59.587   1.411  13.108  1.00  0.00    -0.003 C 
ENDROOT
TORSDOF 0
ENDMDL
MODEL 4
REMARK VINA RESULT:      -4.2      0.896      2.634
REMARK  0 active torsions:
REMARK  status: ('A' for Active; 'I' for Inactive)
ROOT
HETATM    1  N   UNL     1      59.576   7.935   2.216  1.00  0.00    -0.376 N 
ATOM      2  HN  UNL     1      58.617   7.883   1.873  1.00  0.00     0.164 HD
HETATM    3  N   UNL     1      61.499   7.354   2.517  1.00  0.00    -0.379 N 
ATOM      4  HN  UNL     1      60.766   7.022   1.890  1.00  0.00     0.164 HD
HETATM    5  C   UNL     1      63.835   8.575   4.206  1.00  0.00     0.036 A 
HETATM    6  C   UNL     1      62.852   8.258   3.395  1.00  0.00     0.014 A 
HETATM    7  C   UNL     1      59.972   7.227   3.760  1.00  0.00     0.084 A 
HETATM    8  C   UNL     1      61.174   9.053   3.399  1.00  0.00     0.067 C 
HETATM    9  C   UNL     1      60.792   8.731   1.247  1.00  0.00     0.084 A 
HETATM   10  C   UNL     1      62.856   6.367   2.669  1.00  0.00     0.083 C 
HETATM   11  C   UNL     1      62.466   8.945   1.733  1.00  0.00     0.005 A 
HETATM   12  C   UNL     1      61.575   7.344   4.463  1.00  0.00     0.005 A 
HETATM   13  C   UNL     1      62.497   9.631   4.252  1.00  0.00     0.050 A 
HETATM   14  C   UNL     1      64.042   6.998   3.577  1.00  0.00    -0.003 C 
ENDROOT
TORSDOF 0
ENDMDL
MODEL 5
REMARK VINA RESULT:      -4.1      5.082      6.831
REMARK  0 active torsions:
REMARK  status: ('A' for Active; 'I' for Inactive)
ROOT
HETATM    1  N   UNL     1      66.429   4.887   8.720  1.00  0.00    -0.376 N 
ATOM      2  HN  UNL     1      66.557   4.347   9.576  1.00  0.00     0.164 HD
HETATM    3  N   UNL     1      65.474   6.055   7.359  1.00  0.00    -0.379 N 
ATOM      4  HN  UNL     1      65.261   5.799   8.324  1.00  0.00     0.164 HD
HETATM    5  C   UNL     1      66.289   7.087   4.519  1.00  0.00     0.036 A 
HETATM    6  C   UNL     1      66.131   6.756   5.780  1.00  0.00     0.014 A 
HETATM    7  C   UNL     1      65.771   4.105   7.307  1.00  0.00     0.084 A 
HETATM    8  C   UNL     1      67.264   5.638   6.735  1.00  0.00     0.067 C 
HETATM    9  C   UNL     1      66.870   6.577   8.696  1.00  0.00     0.084 A 
HETATM   10  C   UNL     1      64.234   6.790   6.489  1.00  0.00     0.083 C 
HETATM   11  C   UNL     1      66.757   7.613   7.282  1.00  0.00     0.005 A 
HETATM   12  C   UNL     1      65.595   4.933   5.771  1.00  0.00     0.005 A 
HETATM   13  C   UNL     1      67.609   6.261   5.217  1.00  0.00     0.050 A 
HETATM   14  C   UNL     1      64.663   7.287   5.006  1.00  0.00    -0.003 C 
ENDROOT
TORSDOF 0
ENDMDL
MODEL 6
REMARK VINA RESULT:      -4.1      1.353      2.601
REMARK  0 active torsions:
REMARK  status: ('A' for Active; 'I' for Inactive)
ROOT
HETATM    1  N   UNL     1      61.213   6.394   4.594  1.00  0.00    -0.376 N 
ATOM      2  HN  UNL     1      60.955   5.713   5.308  1.00  0.00     0.164 HD
HETATM    3  N   UNL     1      61.596   8.219   3.787  1.00  0.00    -0.379 N 
ATOM      4  HN  UNL     1      61.473   7.899   4.748  1.00  0.00     0.164 HD
HETATM    5  C   UNL     1      62.284   9.139   0.876  1.00  0.00     0.036 A 
HETATM    6  C   UNL     1      62.174   8.626   2.079  1.00  0.00     0.014 A 
HETATM    7  C   UNL     1      59.968   7.118   3.611  1.00  0.00     0.084 A 
HETATM    8  C   UNL     1      61.829   6.838   2.443  1.00  0.00     0.067 C 
HETATM    9  C   UNL     1      62.895   6.815   4.377  1.00  0.00     0.084 A 
HETATM   10  C   UNL     1      61.573   9.886   3.546  1.00  0.00     0.083 C 
HETATM   11  C   UNL     1      63.492   7.927   3.155  1.00  0.00     0.005 A 
HETATM   12  C   UNL     1      60.329   8.233   2.307  1.00  0.00     0.005 A 
HETATM   13  C   UNL     1      62.223   7.436   0.927  1.00  0.00     0.050 A 
HETATM   14  C   UNL     1      61.896  10.345   2.024  1.00  0.00    -0.003 C 
ENDROOT
TORSDOF 0
ENDMDL
MODEL 7
REMARK VINA RESULT:      -4.0      5.228      6.876
REMARK  0 active torsions:
REMARK  status: ('A' for Active; 'I' for Inactive)
ROOT
HETATM    1  N   UNL     1      64.677   7.922   6.128  1.00  0.00    -0.376 N 
ATOM      2  HN  UNL     1      63.940   8.621   6.033  1.00  0.00     0.164 HD
HETATM    3  N   UNL     1      65.863   6.357   5.608  1.00  0.00    -0.379 N 
ATOM      4  HN  UNL     1      65.216   6.942   5.078  1.00  0.00     0.164 HD
HETATM    5  C   UNL     1      68.075   4.775   7.158  1.00  0.00     0.036 A 
HETATM    6  C   UNL     1      67.272   5.616   6.548  1.00  0.00     0.014 A 
HETATM    7  C   UNL     1      64.294   6.361   6.804  1.00  0.00     0.084 A 
HETATM    8  C   UNL     1      66.339   6.988   7.381  1.00  0.00     0.067 C 
HETATM    9  C   UNL     1      66.300   8.311   5.612  1.00  0.00     0.084 A 
HETATM   10  C   UNL     1      66.398   4.954   4.845  1.00  0.00     0.083 C 
HETATM   11  C   UNL     1      67.677   7.231   5.766  1.00  0.00     0.005 A 
HETATM   12  C   UNL     1      65.515   5.132   7.082  1.00  0.00     0.005 A 
HETATM   13  C   UNL     1      67.552   6.090   8.111  1.00  0.00     0.050 A 
HETATM   14  C   UNL     1      67.517   4.126   5.678  1.00  0.00    -0.003 C 
ENDROOT
TORSDOF 0
ENDMDL
MODEL 8
REMARK VINA RESULT:      -4.0      2.511      4.014
REMARK  0 active torsions:
REMARK  status: ('A' for Active; 'I' for Inactive)
ROOT
HETATM    1  N   UNL     1      64.028   6.443   6.787  1.00  0.00    -0.376 N 
ATOM      2  HN  UNL     1      64.260   5.873   7.601  1.00  0.00     0.164 HD
HETATM    3  N   UNL     1      63.496   8.103   5.745  1.00  0.00    -0.379 N 
ATOM      4  HN  UNL     1      63.811   7.959   6.705  1.00  0.00     0.164 HD
HETATM    5  C   UNL     1      62.838   8.581   2.723  1.00  0.00     0.036 A 
HETATM    6  C   UNL     1      63.309   8.307   3.917  1.00  0.00     0.014 A 
HETATM    7  C   UNL     1      62.362   6.583   6.289  1.00  0.00     0.084 A 
HETATM    8  C   UNL     1      63.714   6.603   4.533  1.00  0.00     0.067 C 
HETATM    9  C   UNL     1      65.304   7.261   5.919  1.00  0.00     0.084 A 
HETATM   10  C   UNL     1      62.846   9.617   5.391  1.00  0.00     0.083 C 
HETATM   11  C   UNL     1      65.060   8.228   4.473  1.00  0.00     0.005 A 
HETATM   12  C   UNL     1      61.883   7.472   4.855  1.00  0.00     0.005 A 
HETATM   13  C   UNL     1      63.364   6.972   2.936  1.00  0.00     0.050 A 
HETATM   14  C   UNL     1      62.476   9.835   3.827  1.00  0.00    -0.003 C 
ENDROOT
TORSDOF 0
ENDMDL
MODEL 9
REMARK VINA RESULT:      -3.9     11.571     13.011
REMARK  0 active torsions:
REMARK  status: ('A' for Active; 'I' for Inactive)
ROOT
HETATM    1  N   UNL     1      56.918   0.987  14.466  1.00  0.00    -0.376 N 
ATOM      2  HN  UNL     1      56.252   1.209  15.206  1.00  0.00     0.164 HD
HETATM    3  N   UNL     1      58.410  -0.014  13.518  1.00  0.00    -0.379 N 
ATOM      4  HN  UNL     1      57.841  -0.232  14.336  1.00  0.00     0.164 HD
HETATM    5  C   UNL     1      59.932   0.509  10.833  1.00  0.00     0.036 A 
HETATM    6  C   UNL     1      59.111   0.287  11.834  1.00  0.00     0.014 A 
HETATM    7  C   UNL     1      58.515   1.686  14.513  1.00  0.00     0.084 A 
HETATM    8  C   UNL     1      57.810   1.472  12.423  1.00  0.00     0.067 C 
HETATM    9  C   UNL     1      56.439  -0.089  13.175  1.00  0.00     0.084 A 
HETATM   10  C   UNL     1      59.764  -0.985  13.269  1.00  0.00     0.083 C 
HETATM   11  C   UNL     1      57.457  -0.517  11.809  1.00  0.00     0.005 A 
HETATM   12  C   UNL     1      59.692   1.425  13.240  1.00  0.00     0.005 A 
HETATM   13  C   UNL     1      58.672   1.647  10.996  1.00  0.00     0.050 A 
HETATM   14  C   UNL     1      60.562  -0.677  11.891  1.00  0.00    -0.003 C 
ENDROOT
TORSDOF 0
ENDMDL
