MODEL 1
REMARK VINA RESULT:      -5.3      0.000      0.000
REMARK  2 active torsions:
REMARK  status: ('A' for Active; 'I' for Inactive)
REMARK    1  A    between atoms: C_1  and  C_7 
REMARK    2  A    between atoms: C_2  and  C_7 
ROOT
HETATM    1  C   UNL     1      63.119   8.657   4.222  1.00  0.00    -0.042 A 
HETATM    2  C   UNL     1      61.895  10.881   3.001  1.00  0.00     0.084 A 
HETATM    3  C   UNL     1      62.333  10.948   4.315  1.00  0.00     0.119 A 
HETATM    4  C   UNL     1      62.057   9.693   2.305  1.00  0.00     0.119 A 
HETATM    5  C   UNL     1      62.935   9.853   4.933  1.00  0.00     0.050 A 
HETATM    6  C   UNL     1      62.659   8.584   2.900  1.00  0.00     0.050 A 
HETATM    7  F   UNL     1      61.634   9.608   1.037  1.00  0.00    -0.206 F 
HETATM    8  F   UNL     1      62.182  12.087   5.003  1.00  0.00    -0.206 F 
ENDROOT
BRANCH   1   9
HETATM    9  C   UNL     1      63.773   7.463   4.877  1.00  0.00     0.151 C 
BRANCH   9  10
HETATM   10  C   UNL     1      63.300   7.213   6.288  1.00  0.00     0.176 C 
HETATM   11  O   UNL     1      62.162   7.015   6.674  1.00  0.00    -0.648 OA
HETATM   12  O   UNL     1      64.320   7.230   7.171  1.00  0.00    -0.648 OA
ENDBRANCH   9  10
ENDBRANCH   1   9
TORSDOF 2
ENDMDL
MODEL 2
REMARK VINA RESULT:      -5.3      1.519      1.683
REMARK  2 active torsions:
REMARK  status: ('A' for Active; 'I' for Inactive)
REMARK    1  A    between atoms: C_1  and  C_7 
REMARK    2  A    between atoms: C_2  and  C_7 
ROOT
HETATM    1  C   UNL     1      63.007   9.127   4.317  1.00  0.00    -0.042 A 
HETATM    2  C   UNL     1      61.806  11.065   2.661  1.00  0.00     0.084 A 
HETATM    3  C   UNL     1      62.117  11.357   3.981  1.00  0.00     0.119 A 
HETATM    4  C   UNL     1      62.084   9.795   2.178  1.00  0.00     0.119 A 
HETATM    5  C   UNL     1      62.706  10.405   4.813  1.00  0.00     0.050 A 
HETATM    6  C   UNL     1      62.675   8.826   2.988  1.00  0.00     0.050 A 
HETATM    7  F   UNL     1      61.785   9.493   0.907  1.00  0.00    -0.206 F 
HETATM    8  F   UNL     1      61.854  12.577   4.466  1.00  0.00    -0.206 F 
ENDROOT
BRANCH   1   9
HETATM    9  C   UNL     1      63.648   8.086   5.204  1.00  0.00     0.151 C 
BRANCH   9  10
HETATM   10  C   UNL     1      65.137   8.267   5.369  1.00  0.00     0.176 C 
HETATM   11  O   UNL     1      65.722   9.018   6.130  1.00  0.00    -0.648 OA
HETATM   12  O   UNL     1      65.837   7.468   4.537  1.00  0.00    -0.648 OA
ENDBRANCH   9  10
ENDBRANCH   1   9
TORSDOF 2
ENDMDL
MODEL 3
REMARK VINA RESULT:      -5.3      1.515      2.889
REMARK  2 active torsions:
REMARK  status: ('A' for Active; 'I' for Inactive)
REMARK    1  A    between atoms: C_1  and  C_7 
REMARK    2  A    between atoms: C_2  and  C_7 
ROOT
HETATM    1  C   UNL     1      62.995   9.114   4.306  1.00  0.00    -0.042 A 
HETATM    2  C   UNL     1      61.798  11.053   2.649  1.00  0.00     0.084 A 
HETATM    3  C   UNL     1      62.091   9.787   2.160  1.00  0.00     0.119 A 
HETATM    4  C   UNL     1      62.120  11.348   3.965  1.00  0.00     0.119 A 
HETATM    5  C   UNL     1      62.689   8.821   2.968  1.00  0.00     0.050 A 
HETATM    6  C   UNL     1      62.716  10.398   4.794  1.00  0.00     0.050 A 
HETATM    7  F   UNL     1      61.851  12.566   4.452  1.00  0.00    -0.206 F 
HETATM    8  F   UNL     1      61.789   9.485   0.891  1.00  0.00    -0.206 F 
ENDROOT
BRANCH   1   9
HETATM    9  C   UNL     1      63.639   8.076   5.195  1.00  0.00     0.151 C 
BRANCH   9  10
HETATM   10  C   UNL     1      65.128   8.260   5.357  1.00  0.00     0.176 C 
HETATM   11  O   UNL     1      65.713   9.011   6.117  1.00  0.00    -0.648 OA
HETATM   12  O   UNL     1      65.829   7.462   4.524  1.00  0.00    -0.648 OA
ENDBRANCH   9  10
ENDBRANCH   1   9
TORSDOF 2
ENDMDL
MODEL 4
REMARK VINA RESULT:      -4.7      2.786      3.583
REMARK  2 active torsions:
REMARK  status: ('A' for Active; 'I' for Inactive)
REMARK    1  A    between atoms: C_1  and  C_7 
REMARK    2  A    between atoms: C_2  and  C_7 
ROOT
HETATM    1  C   UNL     1      62.274   8.972   2.277  1.00  0.00    -0.042 A 
HETATM    2  C   UNL     1      62.026  11.419   3.649  1.00  0.00     0.084 A 
HETATM    3  C   UNL     1      62.359  10.257   4.330  1.00  0.00     0.119 A 
HETATM    4  C   UNL     1      61.803  11.349   2.283  1.00  0.00     0.119 A 
HETATM    5  C   UNL     1      62.479   9.038   3.663  1.00  0.00     0.050 A 
HETATM    6  C   UNL     1      61.919  10.143   1.592  1.00  0.00     0.050 A 
HETATM    7  F   UNL     1      61.475  12.460   1.611  1.00  0.00    -0.206 F 
HETATM    8  F   UNL     1      62.575  10.305   5.651  1.00  0.00    -0.206 F 
ENDROOT
BRANCH   1   9
HETATM    9  C   UNL     1      62.404   7.660   1.540  1.00  0.00     0.151 C 
BRANCH   9  10
HETATM   10  C   UNL     1      61.081   6.991   1.257  1.00  0.00     0.176 C 
HETATM   11  O   UNL     1      60.467   6.958   0.205  1.00  0.00    -0.648 OA
HETATM   12  O   UNL     1      60.580   6.381   2.351  1.00  0.00    -0.648 OA
ENDBRANCH   9  10
ENDBRANCH   1   9
TORSDOF 2
ENDMDL
MODEL 5
REMARK VINA RESULT:      -4.7      3.273      4.231
REMARK  2 active torsions:
REMARK  status: ('A' for Active; 'I' for Inactive)
REMARK    1  A    between atoms: C_1  and  C_7 
REMARK    2  A    between atoms: C_2  and  C_7 
ROOT
HETATM    1  C   UNL     1      62.154   9.299   2.111  1.00  0.00    -0.042 A 
HETATM    2  C   UNL     1      62.633  10.244   4.722  1.00  0.00     0.084 A 
HETATM    3  C   UNL     1      62.134  11.091   3.743  1.00  0.00     0.119 A 
HETATM    4  C   UNL     1      62.905   8.926   4.385  1.00  0.00     0.119 A 
HETATM    5  C   UNL     1      61.899  10.637   2.445  1.00  0.00     0.050 A 
HETATM    6  C   UNL     1      62.676   8.447   3.095  1.00  0.00     0.050 A 
HETATM    7  F   UNL     1      63.393   8.096   5.315  1.00  0.00    -0.206 F 
HETATM    8  F   UNL     1      61.868  12.367   4.049  1.00  0.00    -0.206 F 
ENDROOT
BRANCH   1   9
HETATM    9  C   UNL     1      61.900   8.792   0.711  1.00  0.00     0.151 C 
BRANCH   9  10
HETATM   10  C   UNL     1      60.636   7.978   0.583  1.00  0.00     0.176 C 
HETATM   11  O   UNL     1      59.483   8.368   0.642  1.00  0.00    -0.648 OA
HETATM   12  O   UNL     1      60.897   6.669   0.383  1.00  0.00    -0.648 OA
ENDBRANCH   9  10
ENDBRANCH   1   9
TORSDOF 2
ENDMDL
MODEL 6
REMARK VINA RESULT:      -4.3      3.295      4.314
REMARK  2 active torsions:
REMARK  status: ('A' for Active; 'I' for Inactive)
REMARK    1  A    between atoms: C_1  and  C_7 
REMARK    2  A    between atoms: C_2  and  C_7 
ROOT
HETATM    1  C   UNL     1      62.120   8.928   3.487  1.00  0.00    -0.042 A 
HETATM    2  C   UNL     1      63.584  10.528   5.286  1.00  0.00     0.084 A 
HETATM    3  C   UNL     1      63.965   9.218   5.032  1.00  0.00     0.119 A 
HETATM    4  C   UNL     1      62.459  11.028   4.648  1.00  0.00     0.119 A 
HETATM    5  C   UNL     1      63.246   8.414   4.148  1.00  0.00     0.050 A 
HETATM    6  C   UNL     1      61.724  10.246   3.758  1.00  0.00     0.050 A 
HETATM    7  F   UNL     1      62.073  12.288   4.886  1.00  0.00    -0.206 F 
HETATM    8  F   UNL     1      65.047   8.716   5.641  1.00  0.00    -0.206 F 
ENDROOT
BRANCH   1   9
HETATM    9  C   UNL     1      61.333   8.071   2.523  1.00  0.00     0.151 C 
BRANCH   9  10
HETATM   10  C   UNL     1      61.306   8.613   1.115  1.00  0.00     0.176 C 
HETATM   11  O   UNL     1      62.213   9.145   0.499  1.00  0.00    -0.648 OA
HETATM   12  O   UNL     1      60.098   8.454   0.537  1.00  0.00    -0.648 OA
ENDBRANCH   9  10
ENDBRANCH   1   9
TORSDOF 2
ENDMDL
MODEL 7
REMARK VINA RESULT:      -4.2      3.737      5.141
REMARK  2 active torsions:
REMARK  status: ('A' for Active; 'I' for Inactive)
REMARK    1  A    between atoms: C_1  and  C_7 
REMARK    2  A    between atoms: C_2  and  C_7 
ROOT
HETATM    1  C   UNL     1      64.055   8.196   5.337  1.00  0.00    -0.042 A 
HETATM    2  C   UNL     1      66.351   6.752   6.100  1.00  0.00     0.084 A 
HETATM    3  C   UNL     1      66.421   7.721   5.110  1.00  0.00     0.119 A 
HETATM    4  C   UNL     1      65.125   6.497   6.696  1.00  0.00     0.119 A 
HETATM    5  C   UNL     1      65.291   8.439   4.719  1.00  0.00     0.050 A 
HETATM    6  C   UNL     1      63.981   7.203   6.325  1.00  0.00     0.050 A 
HETATM    7  F   UNL     1      65.037   5.561   7.649  1.00  0.00    -0.206 F 
HETATM    8  F   UNL     1      67.596   7.979   4.521  1.00  0.00    -0.206 F 
ENDROOT
BRANCH   1   9
HETATM    9  C   UNL     1      62.823   8.967   4.928  1.00  0.00     0.151 C 
BRANCH   9  10
HETATM   10  C   UNL     1      62.890  10.437   5.265  1.00  0.00     0.176 C 
HETATM   11  O   UNL     1      63.557  10.979   6.128  1.00  0.00    -0.648 OA
HETATM   12  O   UNL     1      62.082  11.173   4.473  1.00  0.00    -0.648 OA
ENDBRANCH   9  10
ENDBRANCH   1   9
TORSDOF 2
ENDMDL
MODEL 8
REMARK VINA RESULT:      -4.1      2.490      3.206
REMARK  2 active torsions:
REMARK  status: ('A' for Active; 'I' for Inactive)
REMARK    1  A    between atoms: C_1  and  C_7 
REMARK    2  A    between atoms: C_2  and  C_7 
ROOT
HETATM    1  C   UNL     1      63.032   7.863   3.833  1.00  0.00    -0.042 A 
HETATM    2  C   UNL     1      60.418   7.945   2.785  1.00  0.00     0.084 A 
HETATM    3  C   UNL     1      61.475   8.528   2.099  1.00  0.00     0.119 A 
HETATM    4  C   UNL     1      60.673   7.335   4.004  1.00  0.00     0.119 A 
HETATM    5  C   UNL     1      62.772   8.499   2.610  1.00  0.00     0.050 A 
HETATM    6  C   UNL     1      61.961   7.291   4.535  1.00  0.00     0.050 A 
HETATM    7  F   UNL     1      59.664   6.774   4.683  1.00  0.00    -0.206 F 
HETATM    8  F   UNL     1      61.247   9.124   0.921  1.00  0.00    -0.206 F 
ENDROOT
BRANCH   1   9
HETATM    9  C   UNL     1      64.432   7.820   4.397  1.00  0.00     0.151 C 
BRANCH   9  10
HETATM   10  C   UNL     1      64.731   8.944   5.359  1.00  0.00     0.176 C 
HETATM   11  O   UNL     1      64.102   9.974   5.528  1.00  0.00    -0.648 OA
HETATM   12  O   UNL     1      65.846   8.707   6.081  1.00  0.00    -0.648 OA
ENDBRANCH   9  10
ENDBRANCH   1   9
TORSDOF 2
ENDMDL
MODEL 9
REMARK VINA RESULT:      -4.0     11.377     12.903
REMARK  2 active torsions:
REMARK  status: ('A' for Active; 'I' for Inactive)
REMARK    1  A    between atoms: C_1  and  C_7 
REMARK    2  A    between atoms: C_2  and  C_7 
ROOT
HETATM    1  C   UNL     1      56.081   2.371  12.960  1.00  0.00    -0.042 A 
HETATM    2  C   UNL     1      58.859   1.912  12.862  1.00  0.00     0.084 A 
HETATM    3  C   UNL     1      58.126   1.578  13.992  1.00  0.00     0.119 A 
HETATM    4  C   UNL     1      58.199   2.490  11.788  1.00  0.00     0.119 A 
HETATM    5  C   UNL     1      56.752   1.806  14.055  1.00  0.00     0.050 A 
HETATM    6  C   UNL     1      56.825   2.726  11.825  1.00  0.00     0.050 A 
HETATM    7  F   UNL     1      58.892   2.825  10.692  1.00  0.00    -0.206 F 
HETATM    8  F   UNL     1      58.747   1.021  15.040  1.00  0.00    -0.206 F 
ENDROOT
BRANCH   1   9
HETATM    9  C   UNL     1      54.592   2.620  13.012  1.00  0.00     0.151 C 
BRANCH   9  10
HETATM   10  C   UNL     1      54.225   4.084  13.036  1.00  0.00     0.176 C 
HETATM   11  O   UNL     1      54.451   4.900  13.912  1.00  0.00    -0.648 OA
HETATM   12  O   UNL     1      53.565   4.457  11.920  1.00  0.00    -0.648 OA
ENDBRANCH   9  10
ENDBRANCH   1   9
TORSDOF 2
ENDMDL
