MODEL 1
REMARK VINA RESULT:      -3.2      0.000      0.000
REMARK  0 active torsions:
REMARK  status: ('A' for Active; 'I' for Inactive)
ROOT
HETATM    1  N   UNL     1      61.165   9.289   3.578  1.00  0.00    -0.073 N 
HETATM    2  N   UNL     1      63.700   9.623   5.352  1.00  0.00    -0.073 N 
HETATM    3  C   UNL     1      62.195  11.434   4.376  1.00  0.00     0.055 C 
HETATM    4  C   UNL     1      61.883  10.505   3.204  1.00  0.00     0.234 C 
HETATM    5  C   UNL     1      62.943  10.849   5.576  1.00  0.00     0.234 C 
HETATM    6  C   UNL     1      62.082   8.218   3.991  1.00  0.00     0.259 C 
HETATM    7  C   UNL     1      62.813   8.452   5.325  1.00  0.00     0.259 C 
HETATM    8  H   UNL     1      60.622   8.968   2.777  1.00  0.00     0.277 HD
HETATM    9  H   UNL     1      60.560   9.510   4.369  1.00  0.00     0.277 HD
HETATM   10  H   UNL     1      64.188   9.691   4.460  1.00  0.00     0.277 HD
HETATM   11  H   UNL     1      64.364   9.509   6.118  1.00  0.00     0.277 HD
ENDROOT
TORSDOF 0
ENDMDL
MODEL 2
REMARK VINA RESULT:      -3.0      1.649      2.852
REMARK  0 active torsions:
REMARK  status: ('A' for Active; 'I' for Inactive)
ROOT
HETATM    1  N   UNL     1      63.308   8.696   3.599  1.00  0.00    -0.073 N 
HETATM    2  N   UNL     1      61.202  10.148   1.827  1.00  0.00    -0.073 N 
HETATM    3  C   UNL     1      62.197  10.901   4.050  1.00  0.00     0.055 C 
HETATM    4  C   UNL     1      62.368   9.433   4.439  1.00  0.00     0.234 C 
HETATM    5  C   UNL     1      61.816  11.219   2.603  1.00  0.00     0.234 C 
HETATM    6  C   UNL     1      62.658   8.149   2.400  1.00  0.00     0.259 C 
HETATM    7  C   UNL     1      62.211   9.190   1.358  1.00  0.00     0.259 C 
HETATM    8  H   UNL     1      63.702   7.928   4.141  1.00  0.00     0.277 HD
HETATM    9  H   UNL     1      64.036   9.343   3.296  1.00  0.00     0.277 HD
HETATM   10  H   UNL     1      60.525   9.658   2.412  1.00  0.00     0.277 HD
HETATM   11  H   UNL     1      60.742  10.560   1.015  1.00  0.00     0.277 HD
ENDROOT
TORSDOF 0
ENDMDL
MODEL 3
REMARK VINA RESULT:      -3.0      6.343      7.584
REMARK  0 active torsions:
REMARK  status: ('A' for Active; 'I' for Inactive)
ROOT
HETATM    1  N   UNL     1      67.844   6.754   6.815  1.00  0.00    -0.073 N 
HETATM    2  N   UNL     1      66.224   4.903   8.721  1.00  0.00    -0.073 N 
HETATM    3  C   UNL     1      68.075   4.270   7.086  1.00  0.00     0.055 C 
HETATM    4  C   UNL     1      67.656   5.443   6.201  1.00  0.00     0.234 C 
HETATM    5  C   UNL     1      67.467   4.176   8.487  1.00  0.00     0.234 C 
HETATM    6  C   UNL     1      66.686   7.148   7.630  1.00  0.00     0.259 C 
HETATM    7  C   UNL     1      66.480   6.335   8.921  1.00  0.00     0.259 C 
HETATM    8  H   UNL     1      67.980   7.446   6.079  1.00  0.00     0.277 HD
HETATM    9  H   UNL     1      68.658   6.703   7.427  1.00  0.00     0.277 HD
HETATM   10  H   UNL     1      65.611   4.783   7.915  1.00  0.00     0.277 HD
HETATM   11  H   UNL     1      65.786   4.531   9.564  1.00  0.00     0.277 HD
ENDROOT
TORSDOF 0
ENDMDL
MODEL 4
REMARK VINA RESULT:      -2.9      6.336      7.603
REMARK  0 active torsions:
REMARK  status: ('A' for Active; 'I' for Inactive)
ROOT
HETATM    1  N   UNL     1      66.309   4.866   8.751  1.00  0.00    -0.073 N 
HETATM    2  N   UNL     1      67.856   6.810   6.876  1.00  0.00    -0.073 N 
HETATM    3  C   UNL     1      67.752   4.264   6.788  1.00  0.00     0.055 C 
HETATM    4  C   UNL     1      67.554   4.247   8.302  1.00  0.00     0.234 C 
HETATM    5  C   UNL     1      67.663   5.612   6.068  1.00  0.00     0.234 C 
HETATM    6  C   UNL     1      66.455   6.317   8.935  1.00  0.00     0.259 C 
HETATM    7  C   UNL     1      66.645   7.131   7.643  1.00  0.00     0.259 C 
HETATM    8  H   UNL     1      66.033   4.447   9.638  1.00  0.00     0.277 HD
HETATM    9  H   UNL     1      65.601   4.709   8.033  1.00  0.00     0.277 HD
HETATM   10  H   UNL     1      68.628   6.654   7.524  1.00  0.00     0.277 HD
HETATM   11  H   UNL     1      68.063   7.591   6.253  1.00  0.00     0.277 HD
ENDROOT
TORSDOF 0
ENDMDL
MODEL 5
REMARK VINA RESULT:      -2.9      1.203      2.404
REMARK  0 active torsions:
REMARK  status: ('A' for Active; 'I' for Inactive)
ROOT
HETATM    1  N   UNL     1      62.385   9.485   2.750  1.00  0.00    -0.073 N 
HETATM    2  N   UNL     1      63.173   9.498   5.760  1.00  0.00    -0.073 N 
HETATM    3  C   UNL     1      63.919   7.888   3.930  1.00  0.00     0.055 C 
HETATM    4  C   UNL     1      62.585   8.118   3.222  1.00  0.00     0.234 C 
HETATM    5  C   UNL     1      64.274   8.801   5.105  1.00  0.00     0.234 C 
HETATM    6  C   UNL     1      61.811  10.346   3.793  1.00  0.00     0.259 C 
HETATM    7  C   UNL     1      62.744  10.663   4.975  1.00  0.00     0.259 C 
HETATM    8  H   UNL     1      61.753   9.468   1.950  1.00  0.00     0.277 HD
HETATM    9  H   UNL     1      63.295   9.866   2.491  1.00  0.00     0.277 HD
HETATM   10  H   UNL     1      62.386   8.858   5.862  1.00  0.00     0.277 HD
HETATM   11  H   UNL     1      63.493   9.822   6.673  1.00  0.00     0.277 HD
ENDROOT
TORSDOF 0
ENDMDL
MODEL 6
REMARK VINA RESULT:      -2.8     11.703     12.661
REMARK  0 active torsions:
REMARK  status: ('A' for Active; 'I' for Inactive)
ROOT
HETATM    1  N   UNL     1      57.906   2.773  11.697  1.00  0.00    -0.073 N 
HETATM    2  N   UNL     1      57.179   1.150  14.250  1.00  0.00    -0.073 N 
HETATM    3  C   UNL     1      59.486   1.634  13.280  1.00  0.00     0.055 C 
HETATM    4  C   UNL     1      58.859   1.684  11.887  1.00  0.00     0.234 C 
HETATM    5  C   UNL     1      58.546   1.595  14.487  1.00  0.00     0.234 C 
HETATM    6  C   UNL     1      56.553   2.399  12.130  1.00  0.00     0.259 C 
HETATM    7  C   UNL     1      56.371   2.219  13.648  1.00  0.00     0.259 C 
HETATM    8  H   UNL     1      57.880   3.019  10.708  1.00  0.00     0.277 HD
HETATM    9  H   UNL     1      58.212   3.564  12.264  1.00  0.00     0.277 HD
HETATM   10  H   UNL     1      57.194   0.349  13.619  1.00  0.00     0.277 HD
HETATM   11  H   UNL     1      56.762   0.893  15.145  1.00  0.00     0.277 HD
ENDROOT
TORSDOF 0
ENDMDL
MODEL 7
REMARK VINA RESULT:      -2.8      4.663      6.125
REMARK  0 active torsions:
REMARK  status: ('A' for Active; 'I' for Inactive)
ROOT
HETATM    1  N   UNL     1      67.761   6.619   4.905  1.00  0.00    -0.073 N 
HETATM    2  N   UNL     1      65.567   7.299   7.003  1.00  0.00    -0.073 N 
HETATM    3  C   UNL     1      67.674   5.897   7.307  1.00  0.00     0.055 C 
HETATM    4  C   UNL     1      67.591   5.504   5.833  1.00  0.00     0.234 C 
HETATM    5  C   UNL     1      66.750   7.011   7.804  1.00  0.00     0.234 C 
HETATM    6  C   UNL     1      66.491   7.308   4.639  1.00  0.00     0.259 C 
HETATM    7  C   UNL     1      65.910   8.103   5.822  1.00  0.00     0.259 C 
HETATM    8  H   UNL     1      68.134   6.262   4.026  1.00  0.00     0.277 HD
HETATM    9  H   UNL     1      68.402   7.289   5.330  1.00  0.00     0.277 HD
HETATM   10  H   UNL     1      65.149   6.421   6.698  1.00  0.00     0.277 HD
HETATM   11  H   UNL     1      64.910   7.829   7.576  1.00  0.00     0.277 HD
ENDROOT
TORSDOF 0
ENDMDL
MODEL 8
REMARK VINA RESULT:      -2.7      4.823      6.006
REMARK  0 active torsions:
REMARK  status: ('A' for Active; 'I' for Inactive)
ROOT
HETATM    1  N   UNL     1      67.277   5.343   6.116  1.00  0.00    -0.073 N 
HETATM    2  N   UNL     1      66.833   8.268   7.078  1.00  0.00    -0.073 N 
HETATM    3  C   UNL     1      66.483   7.292   4.749  1.00  0.00     0.055 C 
HETATM    4  C   UNL     1      67.588   6.278   5.039  1.00  0.00     0.234 C 
HETATM    5  C   UNL     1      65.965   8.139   5.914  1.00  0.00     0.234 C 
HETATM    6  C   UNL     1      67.635   5.886   7.433  1.00  0.00     0.259 C 
HETATM    7  C   UNL     1      66.772   7.065   7.918  1.00  0.00     0.259 C 
HETATM    8  H   UNL     1      67.797   4.479   5.962  1.00  0.00     0.277 HD
HETATM    9  H   UNL     1      66.271   5.173   6.107  1.00  0.00     0.277 HD
HETATM   10  H   UNL     1      67.793   8.407   6.765  1.00  0.00     0.277 HD
HETATM   11  H   UNL     1      66.516   9.066   7.630  1.00  0.00     0.277 HD
ENDROOT
TORSDOF 0
ENDMDL
MODEL 9
REMARK VINA RESULT:      -2.6      4.301      5.364
REMARK  0 active torsions:
REMARK  status: ('A' for Active; 'I' for Inactive)
ROOT
HETATM    1  N   UNL     1      67.618   6.533   4.663  1.00  0.00    -0.073 N 
HETATM    2  N   UNL     1      65.420   8.228   6.071  1.00  0.00    -0.073 N 
HETATM    3  C   UNL     1      65.145   6.103   4.690  1.00  0.00     0.055 C 
HETATM    4  C   UNL     1      66.382   6.499   3.885  1.00  0.00     0.234 C 
HETATM    5  C   UNL     1      64.830   6.900   5.958  1.00  0.00     0.234 C 
HETATM    6  C   UNL     1      67.813   7.832   5.322  1.00  0.00     0.259 C 
HETATM    7  C   UNL     1      66.833   8.146   6.466  1.00  0.00     0.259 C 
HETATM    8  H   UNL     1      68.404   6.358   4.039  1.00  0.00     0.277 HD
HETATM    9  H   UNL     1      67.556   5.817   5.387  1.00  0.00     0.277 HD
HETATM   10  H   UNL     1      65.354   8.700   5.170  1.00  0.00     0.277 HD
HETATM   11  H   UNL     1      64.912   8.747   6.787  1.00  0.00     0.277 HD
ENDROOT
TORSDOF 0
ENDMDL
