MODEL 1
REMARK VINA RESULT:      -4.5      0.000      0.000
REMARK  1 active torsions:
REMARK  status: ('A' for Active; 'I' for Inactive)
REMARK    1  A    between atoms: C_5  and  O_9 
ROOT
HETATM    1  C   UNL     1      62.218   9.781   2.516  1.00  0.00     0.075 A 
HETATM    2  C   UNL     1      62.751   8.961   3.513  1.00  0.00     0.063 A 
HETATM    3  C   UNL     1      61.871  11.101   2.806  1.00  0.00     0.138 A 
HETATM    4  C   UNL     1      62.053  11.616   4.086  1.00  0.00     0.047 A 
HETATM    5  C   UNL     1      62.921   9.482   4.794  1.00  0.00     0.067 A 
HETATM    6 CL   UNL     1      61.992   9.142   0.932  1.00  0.00    -0.081 Cl
HETATM    7  F   UNL     1      61.355  11.898   1.859  1.00  0.00    -0.204 F 
HETATM    8  C   UNL     1      62.582  10.801   5.087  1.00  0.00     0.039 A 
ENDROOT
BRANCH   5   9
HETATM    9  O   UNL     1      63.421   8.719   5.808  1.00  0.00    -0.361 OA
HETATM   10  H   UNL     1      64.113   8.111   5.640  1.00  0.00     0.217 HD
ENDBRANCH   5   9
TORSDOF 1
ENDMDL
MODEL 2
REMARK VINA RESULT:      -4.4      2.386      2.931
REMARK  1 active torsions:
REMARK  status: ('A' for Active; 'I' for Inactive)
REMARK    1  A    between atoms: C_5  and  O_9 
ROOT
HETATM    1  C   UNL     1      62.725   8.843   3.405  1.00  0.00     0.075 A 
HETATM    2  C   UNL     1      62.585   9.926   4.276  1.00  0.00     0.063 A 
HETATM    3  C   UNL     1      62.395   8.982   2.057  1.00  0.00     0.138 A 
HETATM    4  C   UNL     1      61.925  10.196   1.565  1.00  0.00     0.047 A 
HETATM    5  C   UNL     1      62.105  11.135   3.777  1.00  0.00     0.067 A 
HETATM    6 CL   UNL     1      63.307   7.341   4.016  1.00  0.00    -0.081 Cl
HETATM    7  F   UNL     1      62.521   7.949   1.211  1.00  0.00    -0.204 F 
HETATM    8  C   UNL     1      61.779  11.280   2.430  1.00  0.00     0.039 A 
ENDROOT
BRANCH   5   9
HETATM    9  O   UNL     1      61.932  12.217   4.588  1.00  0.00    -0.361 OA
HETATM   10  H   UNL     1      62.472  12.326   5.346  1.00  0.00     0.217 HD
ENDBRANCH   5   9
TORSDOF 1
ENDMDL
MODEL 3
REMARK VINA RESULT:      -4.4      2.222      2.740
REMARK  1 active torsions:
REMARK  status: ('A' for Active; 'I' for Inactive)
REMARK    1  A    between atoms: C_5  and  O_9 
ROOT
HETATM    1  C   UNL     1      62.299   9.382   2.497  1.00  0.00     0.075 A 
HETATM    2  C   UNL     1      61.954  10.660   2.943  1.00  0.00     0.063 A 
HETATM    3  C   UNL     1      62.957   8.497   3.351  1.00  0.00     0.138 A 
HETATM    4  C   UNL     1      63.275   8.873   4.652  1.00  0.00     0.047 A 
HETATM    5  C   UNL     1      62.284  11.032   4.244  1.00  0.00     0.067 A 
HETATM    6 CL   UNL     1      61.905   8.918   0.885  1.00  0.00    -0.081 Cl
HETATM    7  F   UNL     1      63.298   7.269   2.934  1.00  0.00    -0.204 F 
HETATM    8  C   UNL     1      62.936  10.149   5.102  1.00  0.00     0.039 A 
ENDROOT
BRANCH   5   9
HETATM    9  O   UNL     1      61.986  12.273   4.723  1.00  0.00    -0.361 OA
HETATM   10  H   UNL     1      61.213  12.405   5.236  1.00  0.00     0.217 HD
ENDBRANCH   5   9
TORSDOF 1
ENDMDL
MODEL 4
REMARK VINA RESULT:      -4.3      1.586      2.315
REMARK  1 active torsions:
REMARK  status: ('A' for Active; 'I' for Inactive)
REMARK    1  A    between atoms: C_5  and  O_9 
ROOT
HETATM    1  C   UNL     1      62.044  10.581   2.675  1.00  0.00     0.075 A 
HETATM    2  C   UNL     1      62.289  10.575   4.050  1.00  0.00     0.063 A 
HETATM    3  C   UNL     1      62.188   9.408   1.933  1.00  0.00     0.138 A 
HETATM    4  C   UNL     1      62.574   8.223   2.552  1.00  0.00     0.047 A 
HETATM    5  C   UNL     1      62.683   9.386   4.659  1.00  0.00     0.067 A 
HETATM    6 CL   UNL     1      61.566  12.049   1.910  1.00  0.00    -0.081 Cl
HETATM    7  F   UNL     1      61.960   9.400   0.612  1.00  0.00    -0.204 F 
HETATM    8  C   UNL     1      62.823   8.211   3.924  1.00  0.00     0.039 A 
ENDROOT
BRANCH   5   9
HETATM    9  O   UNL     1      62.952   9.330   5.995  1.00  0.00    -0.361 OA
HETATM   10  H   UNL     1      62.827  10.088   6.530  1.00  0.00     0.217 HD
ENDBRANCH   5   9
TORSDOF 1
ENDMDL
MODEL 5
REMARK VINA RESULT:      -4.3      1.458      1.722
REMARK  1 active torsions:
REMARK  status: ('A' for Active; 'I' for Inactive)
REMARK    1  A    between atoms: C_5  and  O_9 
ROOT
HETATM    1  C   UNL     1      62.693   8.761   2.854  1.00  0.00     0.075 A 
HETATM    2  C   UNL     1      63.001   9.024   4.191  1.00  0.00     0.063 A 
HETATM    3  C   UNL     1      62.093   9.745   2.068  1.00  0.00     0.138 A 
HETATM    4  C   UNL     1      61.796  10.995   2.603  1.00  0.00     0.047 A 
HETATM    5  C   UNL     1      62.692  10.275   4.721  1.00  0.00     0.067 A 
HETATM    6 CL   UNL     1      63.061   7.213   2.194  1.00  0.00    -0.081 Cl
HETATM    7  F   UNL     1      61.789   9.505   0.784  1.00  0.00    -0.204 F 
HETATM    8  C   UNL     1      62.098  11.262   3.938  1.00  0.00     0.039 A 
ENDROOT
BRANCH   5   9
HETATM    9  O   UNL     1      62.955  10.577   6.024  1.00  0.00    -0.361 OA
HETATM   10  H   UNL     1      63.257   9.909   6.609  1.00  0.00     0.217 HD
ENDBRANCH   5   9
TORSDOF 1
ENDMDL
MODEL 6
REMARK VINA RESULT:      -4.1      2.105      2.589
REMARK  1 active torsions:
REMARK  status: ('A' for Active; 'I' for Inactive)
REMARK    1  A    between atoms: C_5  and  O_9 
ROOT
HETATM    1  C   UNL     1      62.014  10.761   2.710  1.00  0.00     0.075 A 
HETATM    2  C   UNL     1      62.118   9.565   1.995  1.00  0.00     0.063 A 
HETATM    3  C   UNL     1      62.302  10.788   4.074  1.00  0.00     0.138 A 
HETATM    4  C   UNL     1      62.697   9.630   4.738  1.00  0.00     0.047 A 
HETATM    5  C   UNL     1      62.505   8.409   2.669  1.00  0.00     0.067 A 
HETATM    6 CL   UNL     1      61.525  12.194   1.887  1.00  0.00    -0.081 Cl
HETATM    7  F   UNL     1      62.202  11.928   4.773  1.00  0.00    -0.204 F 
HETATM    8  C   UNL     1      62.800   8.433   4.030  1.00  0.00     0.039 A 
ENDROOT
BRANCH   5   9
HETATM    9  O   UNL     1      62.605   7.212   2.022  1.00  0.00    -0.361 OA
HETATM   10  H   UNL     1      62.165   6.458   2.361  1.00  0.00     0.217 HD
ENDBRANCH   5   9
TORSDOF 1
ENDMDL
MODEL 7
REMARK VINA RESULT:      -4.1      2.065      2.761
REMARK  1 active torsions:
REMARK  status: ('A' for Active; 'I' for Inactive)
REMARK    1  A    between atoms: C_5  and  O_9 
ROOT
HETATM    1  C   UNL     1      62.221  10.433   3.490  1.00  0.00     0.075 A 
HETATM    2  C   UNL     1      62.566   9.136   3.879  1.00  0.00     0.063 A 
HETATM    3  C   UNL     1      61.920  10.706   2.156  1.00  0.00     0.138 A 
HETATM    4  C   UNL     1      61.959   9.695   1.200  1.00  0.00     0.047 A 
HETATM    5  C   UNL     1      62.611   8.132   2.915  1.00  0.00     0.067 A 
HETATM    6 CL   UNL     1      62.174  11.683   4.675  1.00  0.00    -0.081 Cl
HETATM    7  F   UNL     1      61.592  11.947   1.768  1.00  0.00    -0.204 F 
HETATM    8  C   UNL     1      62.306   8.400   1.582  1.00  0.00     0.039 A 
ENDROOT
BRANCH   5   9
HETATM    9  O   UNL     1      62.959   6.854   3.238  1.00  0.00    -0.361 OA
HETATM   10  H   UNL     1      63.219   6.646   4.113  1.00  0.00     0.217 HD
ENDBRANCH   5   9
TORSDOF 1
ENDMDL
MODEL 8
REMARK VINA RESULT:      -3.7      3.019      3.445
REMARK  1 active torsions:
REMARK  status: ('A' for Active; 'I' for Inactive)
REMARK    1  A    between atoms: C_5  and  O_9 
ROOT
HETATM    1  C   UNL     1      63.481   8.158   3.613  1.00  0.00     0.075 A 
HETATM    2  C   UNL     1      62.662   8.806   2.687  1.00  0.00     0.063 A 
HETATM    3  C   UNL     1      63.722   8.736   4.860  1.00  0.00     0.138 A 
HETATM    4  C   UNL     1      63.149   9.959   5.195  1.00  0.00     0.047 A 
HETATM    5  C   UNL     1      62.099  10.034   3.027  1.00  0.00     0.067 A 
HETATM    6 CL   UNL     1      64.190   6.644   3.197  1.00  0.00    -0.081 Cl
HETATM    7  F   UNL     1      64.510   8.127   5.757  1.00  0.00    -0.204 F 
HETATM    8  C   UNL     1      62.332  10.612   4.273  1.00  0.00     0.039 A 
ENDROOT
BRANCH   5   9
HETATM    9  O   UNL     1      61.306  10.717   2.153  1.00  0.00    -0.361 OA
HETATM   10  H   UNL     1      61.419  10.603   1.230  1.00  0.00     0.217 HD
ENDBRANCH   5   9
TORSDOF 1
ENDMDL
MODEL 9
REMARK VINA RESULT:      -3.5      3.287      3.997
REMARK  1 active torsions:
REMARK  status: ('A' for Active; 'I' for Inactive)
REMARK    1  A    between atoms: C_5  and  O_9 
ROOT
HETATM    1  C   UNL     1      63.878   8.307   4.238  1.00  0.00     0.075 A 
HETATM    2  C   UNL     1      63.092   9.446   4.428  1.00  0.00     0.063 A 
HETATM    3  C   UNL     1      63.540   7.381   3.251  1.00  0.00     0.138 A 
HETATM    4  C   UNL     1      62.422   7.580   2.446  1.00  0.00     0.047 A 
HETATM    5  C   UNL     1      61.970   9.633   3.624  1.00  0.00     0.067 A 
HETATM    6 CL   UNL     1      65.261   8.062   5.236  1.00  0.00    -0.081 Cl
HETATM    7  F   UNL     1      64.283   6.280   3.061  1.00  0.00    -0.204 F 
HETATM    8  C   UNL     1      61.632   8.714   2.633  1.00  0.00     0.039 A 
ENDROOT
BRANCH   5   9
HETATM    9  O   UNL     1      61.160  10.719   3.780  1.00  0.00    -0.361 OA
HETATM   10  H   UNL     1      60.237  10.638   3.642  1.00  0.00     0.217 HD
ENDBRANCH   5   9
TORSDOF 1
ENDMDL
