MODEL 1
REMARK VINA RESULT:      -5.2      0.000      0.000
REMARK  4 active torsions:
REMARK  status: ('A' for Active; 'I' for Inactive)
REMARK    1  A    between atoms: C_1  and  O_3 
REMARK    2  A    between atoms: C_2  and  C_8 
REMARK    3  A    between atoms: O_3  and  C_9 
REMARK    4  A    between atoms: C_8  and  C_10 
ROOT
HETATM    1  C   UNL     1      65.810   6.783   6.636  1.00  0.00     0.078 A 
HETATM    2  C   UNL     1      64.013   8.371   5.156  1.00  0.00    -0.048 A 
HETATM    3  C   UNL     1      66.287   7.724   5.729  1.00  0.00     0.037 A 
HETATM    4  C   UNL     1      64.429   6.600   6.757  1.00  0.00     0.037 A 
HETATM    5  C   UNL     1      63.533   7.388   6.031  1.00  0.00     0.010 A 
HETATM    6  C   UNL     1      65.396   8.532   5.016  1.00  0.00     0.010 A 
ENDROOT
BRANCH   1   7
HETATM    7  O   UNL     1      66.561   5.969   7.426  1.00  0.00    -0.255 OA
BRANCH   7   8
HETATM    8  C   UNL     1      66.963   6.403   8.717  1.00  0.00     0.530 C 
HETATM    9  F   UNL     1      67.202   7.728   8.815  1.00  0.00    -0.144 F 
HETATM   10  F   UNL     1      68.074   5.731   9.090  1.00  0.00    -0.144 F 
HETATM   11  F   UNL     1      65.979   6.102   9.595  1.00  0.00    -0.144 F 
ENDBRANCH   7   8
ENDBRANCH   1   7
BRANCH   2  12
HETATM   12  C   UNL     1      63.063   9.258   4.391  1.00  0.00     0.151 C 
BRANCH  12  13
HETATM   13  C   UNL     1      62.763  10.572   5.075  1.00  0.00     0.176 C 
HETATM   14  O   UNL     1      63.183  10.982   6.141  1.00  0.00    -0.648 OA
HETATM   15  O   UNL     1      61.915  11.331   4.342  1.00  0.00    -0.648 OA
ENDBRANCH  12  13
ENDBRANCH   2  12
TORSDOF 4
ENDMDL
MODEL 2
REMARK VINA RESULT:      -5.1      2.427      3.042
REMARK  4 active torsions:
REMARK  status: ('A' for Active; 'I' for Inactive)
REMARK    1  A    between atoms: C_1  and  O_3 
REMARK    2  A    between atoms: C_2  and  C_8 
REMARK    3  A    between atoms: O_3  and  C_9 
REMARK    4  A    between atoms: C_8  and  C_10 
ROOT
HETATM    1  C   UNL     1      64.900   7.351   4.771  1.00  0.00     0.078 A 
HETATM    2  C   UNL     1      62.849   8.891   3.602  1.00  0.00    -0.048 A 
HETATM    3  C   UNL     1      64.531   8.571   5.331  1.00  0.00     0.037 A 
HETATM    4  C   UNL     1      64.276   6.932   3.591  1.00  0.00     0.037 A 
HETATM    5  C   UNL     1      63.255   7.688   3.011  1.00  0.00     0.010 A 
HETATM    6  C   UNL     1      63.495   9.321   4.767  1.00  0.00     0.010 A 
ENDROOT
BRANCH   1   7
HETATM    7  O   UNL     1      65.852   6.501   5.241  1.00  0.00    -0.255 OA
BRANCH   7   8
HETATM    8  C   UNL     1      67.220   6.717   4.922  1.00  0.00     0.530 C 
HETATM    9  F   UNL     1      67.442   7.736   4.065  1.00  0.00    -0.144 F 
HETATM   10  F   UNL     1      67.742   5.586   4.401  1.00  0.00    -0.144 F 
HETATM   11  F   UNL     1      67.885   6.997   6.066  1.00  0.00    -0.144 F 
ENDBRANCH   7   8
ENDBRANCH   1   7
BRANCH   2  12
HETATM   12  C   UNL     1      61.723   9.704   3.013  1.00  0.00     0.151 C 
BRANCH  12  13
HETATM   13  C   UNL     1      61.893  11.197   3.175  1.00  0.00     0.176 C 
HETATM   14  O   UNL     1      61.898  11.851   4.202  1.00  0.00    -0.648 OA
HETATM   15  O   UNL     1      62.060  11.809   1.980  1.00  0.00    -0.648 OA
ENDBRANCH  12  13
ENDBRANCH   2  12
TORSDOF 4
ENDMDL
MODEL 3
REMARK VINA RESULT:      -5.0      4.858      6.635
REMARK  4 active torsions:
REMARK  status: ('A' for Active; 'I' for Inactive)
REMARK    1  A    between atoms: C_1  and  O_3 
REMARK    2  A    between atoms: C_2  and  C_8 
REMARK    3  A    between atoms: O_3  and  C_9 
REMARK    4  A    between atoms: C_8  and  C_10 
ROOT
HETATM    1  C   UNL     1      62.706   8.218   3.243  1.00  0.00     0.078 A 
HETATM    2  C   UNL     1      64.980   8.108   4.904  1.00  0.00    -0.048 A 
HETATM    3  C   UNL     1      63.640   7.197   3.089  1.00  0.00     0.037 A 
HETATM    4  C   UNL     1      62.945   9.215   4.193  1.00  0.00     0.037 A 
HETATM    5  C   UNL     1      64.067   9.163   5.024  1.00  0.00     0.010 A 
HETATM    6  C   UNL     1      64.753   7.126   3.932  1.00  0.00     0.010 A 
ENDROOT
BRANCH   1   7
HETATM    7  O   UNL     1      61.560   8.379   2.528  1.00  0.00    -0.255 OA
BRANCH   7   8
HETATM    8  C   UNL     1      61.568   9.147   1.333  1.00  0.00     0.530 C 
HETATM    9  F   UNL     1      62.653   8.959   0.552  1.00  0.00    -0.144 F 
HETATM   10  F   UNL     1      61.474  10.458   1.643  1.00  0.00    -0.144 F 
HETATM   11  F   UNL     1      60.479   8.810   0.603  1.00  0.00    -0.144 F 
ENDBRANCH   7   8
ENDBRANCH   1   7
BRANCH   2  12
HETATM   12  C   UNL     1      66.178   8.012   5.816  1.00  0.00     0.151 C 
BRANCH  12  13
HETATM   13  C   UNL     1      65.992   7.063   6.976  1.00  0.00     0.176 C 
HETATM   14  O   UNL     1      65.016   6.921   7.689  1.00  0.00    -0.648 OA
HETATM   15  O   UNL     1      67.097   6.307   7.180  1.00  0.00    -0.648 OA
ENDBRANCH  12  13
ENDBRANCH   2  12
TORSDOF 4
ENDMDL
MODEL 4
REMARK VINA RESULT:      -4.6      2.961      3.981
REMARK  4 active torsions:
REMARK  status: ('A' for Active; 'I' for Inactive)
REMARK    1  A    between atoms: C_1  and  O_3 
REMARK    2  A    between atoms: C_2  and  C_8 
REMARK    3  A    between atoms: O_3  and  C_9 
REMARK    4  A    between atoms: C_8  and  C_10 
ROOT
HETATM    1  C   UNL     1      64.003   8.481   4.971  1.00  0.00     0.078 A 
HETATM    2  C   UNL     1      62.392   8.980   2.714  1.00  0.00    -0.048 A 
HETATM    3  C   UNL     1      63.945   7.557   3.932  1.00  0.00     0.037 A 
HETATM    4  C   UNL     1      63.208   9.629   4.901  1.00  0.00     0.037 A 
HETATM    5  C   UNL     1      62.412   9.885   3.782  1.00  0.00     0.010 A 
HETATM    6  C   UNL     1      63.168   7.818   2.799  1.00  0.00     0.010 A 
ENDROOT
BRANCH   1   7
HETATM    7  O   UNL     1      64.751   8.378   6.103  1.00  0.00    -0.255 OA
BRANCH   7   8
HETATM    8  C   UNL     1      66.106   7.956   6.026  1.00  0.00     0.530 C 
HETATM    9  F   UNL     1      66.732   8.288   4.877  1.00  0.00    -0.144 F 
HETATM   10  F   UNL     1      66.167   6.616   6.186  1.00  0.00    -0.144 F 
HETATM   11  F   UNL     1      66.789   8.530   7.042  1.00  0.00    -0.144 F 
ENDBRANCH   7   8
ENDBRANCH   1   7
BRANCH   2  12
HETATM   12  C   UNL     1      61.569   9.256   1.480  1.00  0.00     0.151 C 
BRANCH  12  13
HETATM   13  C   UNL     1      60.449   8.265   1.254  1.00  0.00     0.176 C 
HETATM   14  O   UNL     1      60.033   7.821   0.201  1.00  0.00    -0.648 OA
HETATM   15  O   UNL     1      59.896   7.869   2.424  1.00  0.00    -0.648 OA
ENDBRANCH  12  13
ENDBRANCH   2  12
TORSDOF 4
ENDMDL
MODEL 5
REMARK VINA RESULT:      -4.6      3.235      6.022
REMARK  4 active torsions:
REMARK  status: ('A' for Active; 'I' for Inactive)
REMARK    1  A    between atoms: C_1  and  O_3 
REMARK    2  A    between atoms: C_2  and  C_8 
REMARK    3  A    between atoms: O_3  and  C_9 
REMARK    4  A    between atoms: C_8  and  C_10 
ROOT
HETATM    1  C   UNL     1      66.029   7.840   5.454  1.00  0.00     0.078 A 
HETATM    2  C   UNL     1      67.377   5.519   6.312  1.00  0.00    -0.048 A 
HETATM    3  C   UNL     1      66.147   6.742   4.606  1.00  0.00     0.037 A 
HETATM    4  C   UNL     1      66.638   7.792   6.711  1.00  0.00     0.037 A 
HETATM    5  C   UNL     1      67.302   6.642   7.145  1.00  0.00     0.010 A 
HETATM    6  C   UNL     1      66.791   5.580   5.042  1.00  0.00     0.010 A 
ENDROOT
BRANCH   1   7
HETATM    7  O   UNL     1      65.391   9.009   5.177  1.00  0.00    -0.255 OA
BRANCH   7   8
HETATM    8  C   UNL     1      63.978   9.031   5.025  1.00  0.00     0.530 C 
HETATM    9  F   UNL     1      63.314   8.167   5.821  1.00  0.00    -0.144 F 
HETATM   10  F   UNL     1      63.663   8.768   3.738  1.00  0.00    -0.144 F 
HETATM   11  F   UNL     1      63.537  10.275   5.318  1.00  0.00    -0.144 F 
ENDBRANCH   7   8
ENDBRANCH   1   7
BRANCH   2  12
HETATM   12  C   UNL     1      68.057   4.254   6.775  1.00  0.00     0.151 C 
BRANCH  12  13
HETATM   13  C   UNL     1      67.488   3.683   8.054  1.00  0.00     0.176 C 
HETATM   14  O   UNL     1      68.062   3.453   9.101  1.00  0.00    -0.648 OA
HETATM   15  O   UNL     1      66.163   3.429   7.936  1.00  0.00    -0.648 OA
ENDBRANCH  12  13
ENDBRANCH   2  12
TORSDOF 4
ENDMDL
MODEL 6
REMARK VINA RESULT:      -4.5      3.851      6.186
REMARK  4 active torsions:
REMARK  status: ('A' for Active; 'I' for Inactive)
REMARK    1  A    between atoms: C_1  and  O_3 
REMARK    2  A    between atoms: C_2  and  C_8 
REMARK    3  A    between atoms: O_3  and  C_9 
REMARK    4  A    between atoms: C_8  and  C_10 
ROOT
HETATM    1  C   UNL     1      63.394   8.890   5.253  1.00  0.00     0.078 A 
HETATM    2  C   UNL     1      64.836   6.709   6.303  1.00  0.00    -0.048 A 
HETATM    3  C   UNL     1      62.722   7.806   5.810  1.00  0.00     0.037 A 
HETATM    4  C   UNL     1      64.789   8.852   5.173  1.00  0.00     0.037 A 
HETATM    5  C   UNL     1      65.510   7.776   5.697  1.00  0.00     0.010 A 
HETATM    6  C   UNL     1      63.438   6.737   6.357  1.00  0.00     0.010 A 
ENDROOT
BRANCH   1   7
HETATM    7  O   UNL     1      62.827  10.012   4.733  1.00  0.00    -0.255 OA
BRANCH   7   8
HETATM    8  C   UNL     1      62.139   9.951   3.491  1.00  0.00     0.530 C 
HETATM    9  F   UNL     1      62.039  11.133   2.847  1.00  0.00    -0.144 F 
HETATM   10  F   UNL     1      60.898   9.456   3.690  1.00  0.00    -0.144 F 
HETATM   11  F   UNL     1      62.803   9.099   2.677  1.00  0.00    -0.144 F 
ENDBRANCH   7   8
ENDBRANCH   1   7
BRANCH   2  12
HETATM   12  C   UNL     1      65.597   5.555   6.909  1.00  0.00     0.151 C 
BRANCH  12  13
HETATM   13  C   UNL     1      66.503   5.950   8.053  1.00  0.00     0.176 C 
HETATM   14  O   UNL     1      66.200   6.452   9.119  1.00  0.00    -0.648 OA
HETATM   15  O   UNL     1      67.799   5.671   7.777  1.00  0.00    -0.648 OA
ENDBRANCH  12  13
ENDBRANCH   2  12
TORSDOF 4
ENDMDL
MODEL 7
REMARK VINA RESULT:      -4.4      2.724      3.550
REMARK  4 active torsions:
REMARK  status: ('A' for Active; 'I' for Inactive)
REMARK    1  A    between atoms: C_1  and  O_3 
REMARK    2  A    between atoms: C_2  and  C_8 
REMARK    3  A    between atoms: O_3  and  C_9 
REMARK    4  A    between atoms: C_8  and  C_10 
ROOT
HETATM    1  C   UNL     1      62.684   6.917   5.490  1.00  0.00     0.078 A 
HETATM    2  C   UNL     1      62.221   8.791   3.436  1.00  0.00    -0.048 A 
HETATM    3  C   UNL     1      63.696   7.784   5.089  1.00  0.00     0.037 A 
HETATM    4  C   UNL     1      61.457   6.954   4.820  1.00  0.00     0.037 A 
HETATM    5  C   UNL     1      61.219   7.884   3.806  1.00  0.00     0.010 A 
HETATM    6  C   UNL     1      63.457   8.733   4.089  1.00  0.00     0.010 A 
ENDROOT
BRANCH   1   7
HETATM    7  O   UNL     1      62.764   5.984   6.477  1.00  0.00    -0.255 OA
BRANCH   7   8
HETATM    8  C   UNL     1      63.646   4.879   6.342  1.00  0.00     0.530 C 
HETATM    9  F   UNL     1      63.844   4.470   5.071  1.00  0.00    -0.144 F 
HETATM   10  F   UNL     1      63.177   3.841   7.068  1.00  0.00    -0.144 F 
HETATM   11  F   UNL     1      64.851   5.232   6.847  1.00  0.00    -0.144 F 
ENDBRANCH   7   8
ENDBRANCH   1   7
BRANCH   2  12
HETATM   12  C   UNL     1      61.972   9.828   2.369  1.00  0.00     0.151 C 
BRANCH  12  13
HETATM   13  C   UNL     1      61.845  11.237   2.901  1.00  0.00     0.176 C 
HETATM   14  O   UNL     1      61.724  11.603   4.055  1.00  0.00    -0.648 OA
HETATM   15  O   UNL     1      61.885  12.149   1.901  1.00  0.00    -0.648 OA
ENDBRANCH  12  13
ENDBRANCH   2  12
TORSDOF 4
ENDMDL
MODEL 8
REMARK VINA RESULT:      -4.4      2.923      3.899
REMARK  4 active torsions:
REMARK  status: ('A' for Active; 'I' for Inactive)
REMARK    1  A    between atoms: C_1  and  O_3 
REMARK    2  A    between atoms: C_2  and  C_8 
REMARK    3  A    between atoms: O_3  and  C_9 
REMARK    4  A    between atoms: C_8  and  C_10 
ROOT
HETATM    1  C   UNL     1      62.975   7.835   5.663  1.00  0.00     0.078 A 
HETATM    2  C   UNL     1      62.084   9.066   3.289  1.00  0.00    -0.048 A 
HETATM    3  C   UNL     1      62.187   7.129   4.759  1.00  0.00     0.037 A 
HETATM    4  C   UNL     1      63.267   9.177   5.401  1.00  0.00     0.037 A 
HETATM    5  C   UNL     1      62.834   9.791   4.224  1.00  0.00     0.010 A 
HETATM    6  C   UNL     1      61.769   7.730   3.568  1.00  0.00     0.010 A 
ENDROOT
BRANCH   1   7
HETATM    7  O   UNL     1      63.487   7.361   6.830  1.00  0.00    -0.255 OA
BRANCH   7   8
HETATM    8  C   UNL     1      64.679   6.587   6.823  1.00  0.00     0.530 C 
HETATM    9  F   UNL     1      65.411   6.696   5.694  1.00  0.00    -0.144 F 
HETATM   10  F   UNL     1      64.370   5.287   7.019  1.00  0.00    -0.144 F 
HETATM   11  F   UNL     1      65.457   6.993   7.852  1.00  0.00    -0.144 F 
ENDBRANCH   7   8
ENDBRANCH   1   7
BRANCH   2  12
HETATM   12  C   UNL     1      61.638   9.698   1.994  1.00  0.00     0.151 C 
BRANCH  12  13
HETATM   13  C   UNL     1      61.506   8.721   0.848  1.00  0.00     0.176 C 
HETATM   14  O   UNL     1      62.389   8.189   0.201  1.00  0.00    -0.648 OA
HETATM   15  O   UNL     1      60.208   8.455   0.572  1.00  0.00    -0.648 OA
ENDBRANCH  12  13
ENDBRANCH   2  12
TORSDOF 4
ENDMDL
MODEL 9
REMARK VINA RESULT:      -4.3      5.383      7.110
REMARK  4 active torsions:
REMARK  status: ('A' for Active; 'I' for Inactive)
REMARK    1  A    between atoms: C_1  and  O_3 
REMARK    2  A    between atoms: C_2  and  C_8 
REMARK    3  A    between atoms: O_3  and  C_9 
REMARK    4  A    between atoms: C_8  and  C_10 
ROOT
HETATM    1  C   UNL     1      61.788   8.689   2.166  1.00  0.00     0.078 A 
HETATM    2  C   UNL     1      63.680   8.704   4.255  1.00  0.00    -0.048 A 
HETATM    3  C   UNL     1      62.691   7.639   2.304  1.00  0.00     0.037 A 
HETATM    4  C   UNL     1      61.874   9.774   3.045  1.00  0.00     0.037 A 
HETATM    5  C   UNL     1      62.805   9.784   4.085  1.00  0.00     0.010 A 
HETATM    6  C   UNL     1      63.611   7.633   3.357  1.00  0.00     0.010 A 
ENDROOT
BRANCH   1   7
HETATM    7  O   UNL     1      60.815   8.799   1.223  1.00  0.00    -0.255 OA
BRANCH   7   8
HETATM    8  C   UNL     1      59.795   7.814   1.133  1.00  0.00     0.530 C 
HETATM    9  F   UNL     1      59.420   7.285   2.316  1.00  0.00    -0.144 F 
HETATM   10  F   UNL     1      60.207   6.817   0.320  1.00  0.00    -0.144 F 
HETATM   11  F   UNL     1      58.701   8.382   0.576  1.00  0.00    -0.144 F 
ENDBRANCH   7   8
ENDBRANCH   1   7
BRANCH   2  12
HETATM   12  C   UNL     1      64.668   8.678   5.395  1.00  0.00     0.151 C 
BRANCH  12  13
HETATM   13  C   UNL     1      64.751   7.347   6.105  1.00  0.00     0.176 C 
HETATM   14  O   UNL     1      65.599   6.481   5.994  1.00  0.00    -0.648 OA
HETATM   15  O   UNL     1      63.715   7.176   6.959  1.00  0.00    -0.648 OA
ENDBRANCH  12  13
ENDBRANCH   2  12
TORSDOF 4
ENDMDL
