MODEL 1
REMARK VINA RESULT:      -4.6      0.000      0.000
REMARK  2 active torsions:
REMARK  status: ('A' for Active; 'I' for Inactive)
REMARK    1  A    between atoms: C_2  and  C_9 
REMARK    2  A    between atoms: N_4  and  C_9 
ROOT
HETATM    1  C   UNL     1      61.798  11.391   2.315  1.00  0.00     0.116 A 
HETATM    2  C   UNL     1      62.490   9.161   3.849  1.00  0.00    -0.033 A 
HETATM    3  F   UNL     1      61.469  12.459   1.578  1.00  0.00    -0.206 F 
HETATM    4  C   UNL     1      61.959  11.530   3.688  1.00  0.00     0.043 A 
HETATM    5  C   UNL     1      61.973  10.159   1.695  1.00  0.00     0.043 A 
HETATM    6  C   UNL     1      62.303  10.416   4.455  1.00  0.00     0.012 A 
HETATM    7  C   UNL     1      62.318   9.044   2.461  1.00  0.00     0.012 A 
ENDROOT
BRANCH   2   8
HETATM    8  C   UNL     1      62.853   7.957   4.682  1.00  0.00     0.268 C 
BRANCH   8   9
HETATM    9  N   UNL     1      62.970   8.299   6.094  1.00  0.00    -0.075 N 
HETATM   10  H   UNL     1      62.518   7.580   6.657  1.00  0.00     0.274 HD
HETATM   11  H   UNL     1      62.519   9.198   6.265  1.00  0.00     0.274 HD
HETATM   12  H   UNL     1      63.956   8.360   6.349  1.00  0.00     0.274 HD
ENDBRANCH   8   9
ENDBRANCH   2   8
TORSDOF 2
ENDMDL
MODEL 2
REMARK VINA RESULT:      -4.6      0.009      1.613
REMARK  2 active torsions:
REMARK  status: ('A' for Active; 'I' for Inactive)
REMARK    1  A    between atoms: C_2  and  C_9 
REMARK    2  A    between atoms: N_4  and  C_9 
ROOT
HETATM    1  C   UNL     1      61.792  11.392   2.314  1.00  0.00     0.116 A 
HETATM    2  C   UNL     1      62.484   9.163   3.851  1.00  0.00    -0.033 A 
HETATM    3  F   UNL     1      61.458  12.461   1.580  1.00  0.00    -0.206 F 
HETATM    4  C   UNL     1      61.974  10.163   1.691  1.00  0.00     0.043 A 
HETATM    5  C   UNL     1      61.952  11.529   3.688  1.00  0.00     0.043 A 
HETATM    6  C   UNL     1      62.321   9.050   2.459  1.00  0.00     0.012 A 
HETATM    7  C   UNL     1      62.298  10.416   4.457  1.00  0.00     0.012 A 
ENDROOT
BRANCH   2   8
HETATM    8  C   UNL     1      62.867   7.960   4.676  1.00  0.00     0.268 C 
BRANCH   8   9
HETATM    9  N   UNL     1      62.977   8.294   6.090  1.00  0.00    -0.075 N 
HETATM   10  H   UNL     1      63.286   9.260   6.189  1.00  0.00     0.274 HD
HETATM   11  H   UNL     1      63.654   7.673   6.534  1.00  0.00     0.274 HD
HETATM   12  H   UNL     1      62.067   8.181   6.538  1.00  0.00     0.274 HD
ENDBRANCH   8   9
ENDBRANCH   2   8
TORSDOF 2
ENDMDL
MODEL 3
REMARK VINA RESULT:      -4.5      1.691      2.410
REMARK  2 active torsions:
REMARK  status: ('A' for Active; 'I' for Inactive)
REMARK    1  A    between atoms: C_2  and  C_9 
REMARK    2  A    between atoms: N_4  and  C_9 
ROOT
HETATM    1  C   UNL     1      62.106   9.631   1.775  1.00  0.00     0.116 A 
HETATM    2  C   UNL     1      62.406  10.681   4.347  1.00  0.00    -0.033 A 
HETATM    3  F   UNL     1      61.965   9.126   0.542  1.00  0.00    -0.206 F 
HETATM    4  C   UNL     1      61.794  10.964   2.008  1.00  0.00     0.043 A 
HETATM    5  C   UNL     1      62.562   8.812   2.802  1.00  0.00     0.043 A 
HETATM    6  C   UNL     1      61.943  11.489   3.294  1.00  0.00     0.012 A 
HETATM    7  C   UNL     1      62.712   9.336   4.087  1.00  0.00     0.012 A 
ENDROOT
BRANCH   2   8
HETATM    8  C   UNL     1      62.558  11.249   5.736  1.00  0.00     0.268 C 
BRANCH   8   9
HETATM    9  N   UNL     1      63.952  11.256   6.162  1.00  0.00    -0.075 N 
HETATM   10  H   UNL     1      63.999  11.405   7.169  1.00  0.00     0.274 HD
HETATM   11  H   UNL     1      64.449  12.007   5.683  1.00  0.00     0.274 HD
HETATM   12  H   UNL     1      64.383  10.361   5.930  1.00  0.00     0.274 HD
ENDBRANCH   8   9
ENDBRANCH   2   8
TORSDOF 2
ENDMDL
MODEL 4
REMARK VINA RESULT:      -4.1      2.517      3.140
REMARK  2 active torsions:
REMARK  status: ('A' for Active; 'I' for Inactive)
REMARK    1  A    between atoms: C_2  and  C_9 
REMARK    2  A    between atoms: N_4  and  C_9 
ROOT
HETATM    1  C   UNL     1      62.237  10.988   4.032  1.00  0.00     0.116 A 
HETATM    2  C   UNL     1      62.187   9.184   1.898  1.00  0.00    -0.033 A 
HETATM    3  F   UNL     1      62.263  11.855   5.052  1.00  0.00    -0.206 F 
HETATM    4  C   UNL     1      62.619   9.669   4.243  1.00  0.00     0.043 A 
HETATM    5  C   UNL     1      61.828  11.422   2.775  1.00  0.00     0.043 A 
HETATM    6  C   UNL     1      62.592   8.767   3.178  1.00  0.00     0.012 A 
HETATM    7  C   UNL     1      61.802  10.521   1.709  1.00  0.00     0.012 A 
ENDROOT
BRANCH   2   8
HETATM    8  C   UNL     1      62.151   8.205   0.751  1.00  0.00     0.268 C 
BRANCH   8   9
HETATM    9  N   UNL     1      60.784   7.913   0.339  1.00  0.00    -0.075 N 
HETATM   10  H   UNL     1      60.251   7.578   1.141  1.00  0.00     0.274 HD
HETATM   11  H   UNL     1      60.794   7.196  -0.387  1.00  0.00     0.274 HD
HETATM   12  H   UNL     1      60.351   8.761  -0.027  1.00  0.00     0.274 HD
ENDBRANCH   8   9
ENDBRANCH   2   8
TORSDOF 2
ENDMDL
MODEL 5
REMARK VINA RESULT:      -4.1      1.828      2.524
REMARK  2 active torsions:
REMARK  status: ('A' for Active; 'I' for Inactive)
REMARK    1  A    between atoms: C_2  and  C_9 
REMARK    2  A    between atoms: N_4  and  C_9 
ROOT
HETATM    1  C   UNL     1      61.982   9.166   1.471  1.00  0.00     0.116 A 
HETATM    2  C   UNL     1      62.712   9.652   4.124  1.00  0.00    -0.033 A 
HETATM    3  F   UNL     1      61.630   8.936   0.200  1.00  0.00    -0.206 F 
HETATM    4  C   UNL     1      62.573   8.152   2.213  1.00  0.00     0.043 A 
HETATM    5  C   UNL     1      61.752  10.420   2.028  1.00  0.00     0.043 A 
HETATM    6  C   UNL     1      62.939   8.394   3.538  1.00  0.00     0.012 A 
HETATM    7  C   UNL     1      62.117  10.663   3.354  1.00  0.00     0.012 A 
ENDROOT
BRANCH   2   8
HETATM    8  C   UNL     1      63.116   9.913   5.554  1.00  0.00     0.268 C 
BRANCH   8   9
HETATM    9  N   UNL     1      63.089  11.337   5.866  1.00  0.00    -0.075 N 
HETATM   10  H   UNL     1      62.628  11.842   5.110  1.00  0.00     0.274 HD
HETATM   11  H   UNL     1      64.044  11.680   5.972  1.00  0.00     0.274 HD
HETATM   12  H   UNL     1      62.576  11.484   6.736  1.00  0.00     0.274 HD
ENDBRANCH   8   9
ENDBRANCH   2   8
TORSDOF 2
ENDMDL
MODEL 6
REMARK VINA RESULT:      -3.6      1.546      1.915
REMARK  2 active torsions:
REMARK  status: ('A' for Active; 'I' for Inactive)
REMARK    1  A    between atoms: C_2  and  C_9 
REMARK    2  A    between atoms: N_4  and  C_9 
ROOT
HETATM    1  C   UNL     1      62.095   9.473   2.460  1.00  0.00     0.116 A 
HETATM    2  C   UNL     1      63.494   8.327   4.590  1.00  0.00    -0.033 A 
HETATM    3  F   UNL     1      61.427  10.021   1.437  1.00  0.00    -0.206 F 
HETATM    4  C   UNL     1      62.147  10.138   3.678  1.00  0.00     0.043 A 
HETATM    5  C   UNL     1      62.725   8.245   2.286  1.00  0.00     0.043 A 
HETATM    6  C   UNL     1      62.845   9.565   4.743  1.00  0.00     0.012 A 
HETATM    7  C   UNL     1      63.424   7.672   3.350  1.00  0.00     0.012 A 
ENDROOT
BRANCH   2   8
HETATM    8  C   UNL     1      64.239   7.708   5.745  1.00  0.00     0.268 C 
BRANCH   8   9
HETATM    9  N   UNL     1      65.486   8.412   6.016  1.00  0.00    -0.075 N 
HETATM   10  H   UNL     1      65.325   9.130   6.721  1.00  0.00     0.274 HD
HETATM   11  H   UNL     1      65.824   8.848   5.158  1.00  0.00     0.274 HD
HETATM   12  H   UNL     1      66.183   7.750   6.358  1.00  0.00     0.274 HD
ENDBRANCH   8   9
ENDBRANCH   2   8
TORSDOF 2
ENDMDL
MODEL 7
REMARK VINA RESULT:      -3.6      3.139      4.276
REMARK  2 active torsions:
REMARK  status: ('A' for Active; 'I' for Inactive)
REMARK    1  A    between atoms: C_2  and  C_9 
REMARK    2  A    between atoms: N_4  and  C_9 
ROOT
HETATM    1  C   UNL     1      63.706   8.175   5.110  1.00  0.00     0.116 A 
HETATM    2  C   UNL     1      62.435   9.464   2.982  1.00  0.00    -0.033 A 
HETATM    3  F   UNL     1      64.317   7.560   6.131  1.00  0.00    -0.206 F 
HETATM    4  C   UNL     1      63.616   7.535   3.881  1.00  0.00     0.043 A 
HETATM    5  C   UNL     1      63.172   9.445   5.298  1.00  0.00     0.043 A 
HETATM    6  C   UNL     1      62.979   8.178   2.818  1.00  0.00     0.012 A 
HETATM    7  C   UNL     1      62.536  10.090   4.235  1.00  0.00     0.012 A 
ENDROOT
BRANCH   2   8
HETATM    8  C   UNL     1      61.741  10.153   1.834  1.00  0.00     0.268 C 
BRANCH   8   9
HETATM    9  N   UNL     1      61.583  11.580   2.082  1.00  0.00    -0.075 N 
HETATM   10  H   UNL     1      60.594  11.800   2.186  1.00  0.00     0.274 HD
HETATM   11  H   UNL     1      61.968  12.106   1.297  1.00  0.00     0.274 HD
HETATM   12  H   UNL     1      62.080  11.834   2.936  1.00  0.00     0.274 HD
ENDBRANCH   8   9
ENDBRANCH   2   8
TORSDOF 2
ENDMDL
MODEL 8
REMARK VINA RESULT:      -3.5     12.894     14.012
REMARK  2 active torsions:
REMARK  status: ('A' for Active; 'I' for Inactive)
REMARK    1  A    between atoms: C_2  and  C_9 
REMARK    2  A    between atoms: N_4  and  C_9 
ROOT
HETATM    1  C   UNL     1      59.410   1.307  13.058  1.00  0.00     0.116 A 
HETATM    2  C   UNL     1      56.784   2.239  13.255  1.00  0.00    -0.033 A 
HETATM    3  F   UNL     1      60.669   0.861  12.967  1.00  0.00    -0.206 F 
HETATM    4  C   UNL     1      58.885   2.087  12.037  1.00  0.00     0.043 A 
HETATM    5  C   UNL     1      58.648   0.981  14.175  1.00  0.00     0.043 A 
HETATM    6  C   UNL     1      57.572   2.552  12.134  1.00  0.00     0.012 A 
HETATM    7  C   UNL     1      57.335   1.446  14.273  1.00  0.00     0.012 A 
ENDROOT
BRANCH   2   8
HETATM    8  C   UNL     1      55.363   2.736  13.353  1.00  0.00     0.268 C 
BRANCH   8   9
HETATM    9  N   UNL     1      54.970   2.964  14.738  1.00  0.00    -0.075 N 
HETATM   10  H   UNL     1      54.614   3.914  14.839  1.00  0.00     0.274 HD
HETATM   11  H   UNL     1      55.779   2.837  15.346  1.00  0.00     0.274 HD
HETATM   12  H   UNL     1      54.241   2.299  14.998  1.00  0.00     0.274 HD
ENDBRANCH   8   9
ENDBRANCH   2   8
TORSDOF 2
ENDMDL
MODEL 9
REMARK VINA RESULT:      -3.3      3.384      4.264
REMARK  2 active torsions:
REMARK  status: ('A' for Active; 'I' for Inactive)
REMARK    1  A    between atoms: C_2  and  C_9 
REMARK    2  A    between atoms: N_4  and  C_9 
ROOT
HETATM    1  C   UNL     1      65.122   7.523   4.592  1.00  0.00     0.116 A 
HETATM    2  C   UNL     1      62.751   8.708   3.706  1.00  0.00    -0.033 A 
HETATM    3  F   UNL     1      66.256   6.952   5.017  1.00  0.00    -0.206 F 
HETATM    4  C   UNL     1      64.657   8.672   5.219  1.00  0.00     0.043 A 
HETATM    5  C   UNL     1      64.426   6.956   3.530  1.00  0.00     0.043 A 
HETATM    6  C   UNL     1      63.473   9.265   4.776  1.00  0.00     0.012 A 
HETATM    7  C   UNL     1      63.242   7.548   3.086  1.00  0.00     0.012 A 
ENDROOT
BRANCH   2   8
HETATM    8  C   UNL     1      61.478   9.356   3.224  1.00  0.00     0.268 C 
BRANCH   8   9
HETATM    9  N   UNL     1      61.650  10.789   3.022  1.00  0.00    -0.075 N 
HETATM   10  H   UNL     1      62.511  11.095   3.472  1.00  0.00     0.274 HD
HETATM   11  H   UNL     1      60.858  11.287   3.429  1.00  0.00     0.274 HD
HETATM   12  H   UNL     1      61.699  10.988   2.023  1.00  0.00     0.274 HD
ENDBRANCH   8   9
ENDBRANCH   2   8
TORSDOF 2
ENDMDL
