MODEL 1
REMARK VINA RESULT:      -5.1      0.000      0.000
REMARK  2 active torsions:
REMARK  status: ('A' for Active; 'I' for Inactive)
REMARK    1  A    between atoms: C_1  and  C_6 
REMARK    2  A    between atoms: C_5  and  N_8 
ROOT
HETATM    1  C   UNL     1      62.419   9.031   3.113  1.00  0.00    -0.049 A 
HETATM    2  C   UNL     1      63.413   8.565   4.032  1.00  0.00    -0.053 A 
HETATM    3  C   UNL     1      61.854  10.307   3.335  1.00  0.00     0.010 A 
HETATM    4  C   UNL     1      63.790   9.386   5.112  1.00  0.00     0.036 A 
HETATM    5  C   UNL     1      63.217  10.645   5.304  1.00  0.00     0.026 A 
HETATM    6  C   UNL     1      62.246  11.099   4.412  1.00  0.00     0.029 A 
HETATM    7  C   UNL     1      64.127   7.235   3.950  1.00  0.00     0.049 C 
ENDROOT
BRANCH   1   8
HETATM    8  C   UNL     1      61.933   8.235   1.897  1.00  0.00     0.011 C 
HETATM    9  C   UNL     1      60.425   7.960   1.983  1.00  0.00     0.015 C 
HETATM   10  C   UNL     1      62.272   8.963   0.589  1.00  0.00     0.015 C 
ENDBRANCH   1   8
BRANCH   5  11
HETATM   11  N   UNL     1      63.621  11.455   6.394  1.00  0.00    -0.399 N 
HETATM   12  H   UNL     1      64.373  12.084   6.287  1.00  0.00     0.156 HD
HETATM   13  H   UNL     1      63.152  11.391   7.256  1.00  0.00     0.156 HD
ENDBRANCH   5  11
TORSDOF 2
ENDMDL
MODEL 2
REMARK VINA RESULT:      -4.9      0.931      2.463
REMARK  2 active torsions:
REMARK  status: ('A' for Active; 'I' for Inactive)
REMARK    1  A    between atoms: C_1  and  C_6 
REMARK    2  A    between atoms: C_5  and  N_8 
ROOT
HETATM    1  C   UNL     1      62.271   9.428   2.765  1.00  0.00    -0.049 A 
HETATM    2  C   UNL     1      62.091  10.836   2.948  1.00  0.00    -0.053 A 
HETATM    3  C   UNL     1      62.749   8.671   3.859  1.00  0.00     0.010 A 
HETATM    4  C   UNL     1      62.389  11.412   4.197  1.00  0.00     0.036 A 
HETATM    5  C   UNL     1      62.856  10.638   5.262  1.00  0.00     0.026 A 
HETATM    6  C   UNL     1      63.036   9.267   5.085  1.00  0.00     0.029 A 
HETATM    7  C   UNL     1      61.586  11.798   1.896  1.00  0.00     0.049 C 
ENDROOT
BRANCH   1   8
HETATM    8  C   UNL     1      61.973   8.686   1.458  1.00  0.00     0.011 C 
HETATM    9  C   UNL     1      62.867   7.447   1.309  1.00  0.00     0.015 C 
HETATM   10  C   UNL     1      60.492   8.293   1.372  1.00  0.00     0.015 C 
ENDBRANCH   1   8
BRANCH   5  11
HETATM   11  N   UNL     1      63.140  11.241   6.512  1.00  0.00    -0.399 N 
HETATM   12  H   UNL     1      63.990  11.722   6.644  1.00  0.00     0.156 HD
HETATM   13  H   UNL     1      62.490  11.180   7.249  1.00  0.00     0.156 HD
ENDBRANCH   5  11
TORSDOF 2
ENDMDL
MODEL 3
REMARK VINA RESULT:      -4.6      1.968      3.553
REMARK  2 active torsions:
REMARK  status: ('A' for Active; 'I' for Inactive)
REMARK    1  A    between atoms: C_1  and  C_6 
REMARK    2  A    between atoms: C_5  and  N_8 
ROOT
HETATM    1  C   UNL     1      62.991   8.714   4.182  1.00  0.00    -0.049 A 
HETATM    2  C   UNL     1      62.674   8.569   2.794  1.00  0.00    -0.053 A 
HETATM    3  C   UNL     1      62.750   9.966   4.792  1.00  0.00     0.010 A 
HETATM    4  C   UNL     1      62.136   9.665   2.092  1.00  0.00     0.036 A 
HETATM    5  C   UNL     1      61.905  10.889   2.723  1.00  0.00     0.026 A 
HETATM    6  C   UNL     1      62.217  11.034   4.074  1.00  0.00     0.029 A 
HETATM    7  C   UNL     1      62.858   7.307   1.981  1.00  0.00     0.049 C 
ENDROOT
BRANCH   1   8
HETATM    8  C   UNL     1      63.571   7.594   5.053  1.00  0.00     0.011 C 
HETATM    9  C   UNL     1      64.995   7.933   5.514  1.00  0.00     0.015 C 
HETATM   10  C   UNL     1      62.667   7.311   6.261  1.00  0.00     0.015 C 
ENDBRANCH   1   8
BRANCH   5  11
HETATM   11  N   UNL     1      61.355  11.974   1.995  1.00  0.00    -0.399 N 
HETATM   12  H   UNL     1      61.421  11.990   1.012  1.00  0.00     0.156 HD
HETATM   13  H   UNL     1      60.908  12.710   2.471  1.00  0.00     0.156 HD
ENDBRANCH   5  11
TORSDOF 2
ENDMDL
MODEL 4
REMARK VINA RESULT:      -4.5      1.346      2.757
REMARK  2 active torsions:
REMARK  status: ('A' for Active; 'I' for Inactive)
REMARK    1  A    between atoms: C_1  and  C_6 
REMARK    2  A    between atoms: C_5  and  N_8 
ROOT
HETATM    1  C   UNL     1      62.551   8.741   2.881  1.00  0.00    -0.049 A 
HETATM    2  C   UNL     1      62.687   9.712   3.924  1.00  0.00    -0.053 A 
HETATM    3  C   UNL     1      63.312   7.554   2.974  1.00  0.00     0.010 A 
HETATM    4  C   UNL     1      63.563   9.453   4.995  1.00  0.00     0.036 A 
HETATM    5  C   UNL     1      64.299   8.269   5.063  1.00  0.00     0.026 A 
HETATM    6  C   UNL     1      64.171   7.323   4.046  1.00  0.00     0.029 A 
HETATM    7  C   UNL     1      61.951  11.032   3.993  1.00  0.00     0.049 C 
ENDROOT
BRANCH   1   8
HETATM    8  C   UNL     1      61.625   8.904   1.670  1.00  0.00     0.011 C 
HETATM    9  C   UNL     1      62.370   8.608   0.361  1.00  0.00     0.015 C 
HETATM   10  C   UNL     1      60.387   8.007   1.798  1.00  0.00     0.015 C 
ENDBRANCH   1   8
BRANCH   5  11
HETATM   11  N   UNL     1      65.167   8.029   6.157  1.00  0.00    -0.399 N 
HETATM   12  H   UNL     1      66.032   7.580   6.010  1.00  0.00     0.156 HD
HETATM   13  H   UNL     1      64.907   8.311   7.064  1.00  0.00     0.156 HD
ENDBRANCH   5  11
TORSDOF 2
ENDMDL
MODEL 5
REMARK VINA RESULT:      -4.1      1.851      2.685
REMARK  2 active torsions:
REMARK  status: ('A' for Active; 'I' for Inactive)
REMARK    1  A    between atoms: C_1  and  C_6 
REMARK    2  A    between atoms: C_5  and  N_8 
ROOT
HETATM    1  C   UNL     1      62.120   8.952   3.324  1.00  0.00    -0.049 A 
HETATM    2  C   UNL     1      61.548   7.767   3.888  1.00  0.00    -0.053 A 
HETATM    3  C   UNL     1      63.267   9.497   3.945  1.00  0.00     0.010 A 
HETATM    4  C   UNL     1      62.143   7.190   5.026  1.00  0.00     0.036 A 
HETATM    5  C   UNL     1      63.279   7.749   5.616  1.00  0.00     0.026 A 
HETATM    6  C   UNL     1      63.835   8.906   5.071  1.00  0.00     0.029 A 
HETATM    7  C   UNL     1      60.330   7.044   3.357  1.00  0.00     0.049 C 
ENDROOT
BRANCH   1   8
HETATM    8  C   UNL     1      61.570   9.666   2.084  1.00  0.00     0.011 C 
HETATM    9  C   UNL     1      61.831  11.176   2.154  1.00  0.00     0.015 C 
HETATM   10  C   UNL     1      62.167   9.076   0.799  1.00  0.00     0.015 C 
ENDBRANCH   1   8
BRANCH   5  11
HETATM   11  N   UNL     1      63.863   7.144   6.756  1.00  0.00    -0.399 N 
HETATM   12  H   UNL     1      64.386   7.689   7.389  1.00  0.00     0.156 HD
HETATM   13  H   UNL     1      63.746   6.180   6.916  1.00  0.00     0.156 HD
ENDBRANCH   5  11
TORSDOF 2
ENDMDL
MODEL 6
REMARK VINA RESULT:      -4.0      1.974      3.954
REMARK  2 active torsions:
REMARK  status: ('A' for Active; 'I' for Inactive)
REMARK    1  A    between atoms: C_1  and  C_6 
REMARK    2  A    between atoms: C_5  and  N_8 
ROOT
HETATM    1  C   UNL     1      64.225   7.766   4.392  1.00  0.00    -0.049 A 
HETATM    2  C   UNL     1      63.535   7.521   3.162  1.00  0.00    -0.053 A 
HETATM    3  C   UNL     1      63.935   8.960   5.091  1.00  0.00     0.010 A 
HETATM    4  C   UNL     1      62.600   8.465   2.698  1.00  0.00     0.036 A 
HETATM    5  C   UNL     1      62.331   9.635   3.412  1.00  0.00     0.026 A 
HETATM    6  C   UNL     1      63.005   9.878   4.608  1.00  0.00     0.029 A 
HETATM    7  C   UNL     1      63.712   6.300   2.287  1.00  0.00     0.049 C 
ENDROOT
BRANCH   1   8
HETATM    8  C   UNL     1      65.256   6.811   5.004  1.00  0.00     0.011 C 
HETATM    9  C   UNL     1      66.669   7.122   4.491  1.00  0.00     0.015 C 
HETATM   10  C   UNL     1      65.217   6.867   6.537  1.00  0.00     0.015 C 
ENDBRANCH   1   8
BRANCH   5  11
HETATM   11  N   UNL     1      61.379  10.565   2.926  1.00  0.00    -0.399 N 
HETATM   12  H   UNL     1      60.974  11.220   3.541  1.00  0.00     0.156 HD
HETATM   13  H   UNL     1      61.122  10.557   1.976  1.00  0.00     0.156 HD
ENDBRANCH   5  11
TORSDOF 2
ENDMDL
MODEL 7
REMARK VINA RESULT:      -3.9      2.560      3.281
REMARK  2 active torsions:
REMARK  status: ('A' for Active; 'I' for Inactive)
REMARK    1  A    between atoms: C_1  and  C_6 
REMARK    2  A    between atoms: C_5  and  N_8 
ROOT
HETATM    1  C   UNL     1      62.101   8.525   3.723  1.00  0.00    -0.049 A 
HETATM    2  C   UNL     1      63.000   8.229   4.796  1.00  0.00    -0.053 A 
HETATM    3  C   UNL     1      60.891   7.799   3.649  1.00  0.00     0.010 A 
HETATM    4  C   UNL     1      62.650   7.237   5.732  1.00  0.00     0.036 A 
HETATM    5  C   UNL     1      61.445   6.538   5.636  1.00  0.00     0.026 A 
HETATM    6  C   UNL     1      60.569   6.823   4.589  1.00  0.00     0.029 A 
HETATM    7  C   UNL     1      64.331   8.905   5.036  1.00  0.00     0.049 C 
ENDROOT
BRANCH   1   8
HETATM    8  C   UNL     1      62.365   9.587   2.649  1.00  0.00     0.011 C 
HETATM    9  C   UNL     1      61.725   9.192   1.312  1.00  0.00     0.015 C 
HETATM   10  C   UNL     1      61.860  10.965   3.101  1.00  0.00     0.015 C 
ENDBRANCH   1   8
BRANCH   5  11
HETATM   11  N   UNL     1      61.113   5.551   6.597  1.00  0.00    -0.399 N 
HETATM   12  H   UNL     1      61.792   5.245   7.242  1.00  0.00     0.156 HD
HETATM   13  H   UNL     1      60.205   5.171   6.620  1.00  0.00     0.156 HD
ENDBRANCH   5  11
TORSDOF 2
ENDMDL
MODEL 8
REMARK VINA RESULT:      -3.6      2.785      4.593
REMARK  2 active torsions:
REMARK  status: ('A' for Active; 'I' for Inactive)
REMARK    1  A    between atoms: C_1  and  C_6 
REMARK    2  A    between atoms: C_5  and  N_8 
ROOT
HETATM    1  C   UNL     1      62.156   8.469   3.740  1.00  0.00    -0.049 A 
HETATM    2  C   UNL     1      61.536   8.728   2.475  1.00  0.00    -0.053 A 
HETATM    3  C   UNL     1      61.641   7.417   4.530  1.00  0.00     0.010 A 
HETATM    4  C   UNL     1      60.449   7.932   2.066  1.00  0.00     0.036 A 
HETATM    5  C   UNL     1      59.965   6.895   2.866  1.00  0.00     0.026 A 
HETATM    6  C   UNL     1      60.564   6.644   4.100  1.00  0.00     0.029 A 
HETATM    7  C   UNL     1      61.954   9.805   1.499  1.00  0.00     0.049 C 
ENDROOT
BRANCH   1   8
HETATM    8  C   UNL     1      63.348   9.259   4.290  1.00  0.00     0.011 C 
HETATM    9  C   UNL     1      62.884  10.368   5.244  1.00  0.00     0.015 C 
HETATM   10  C   UNL     1      64.348   8.330   4.992  1.00  0.00     0.015 C 
ENDBRANCH   1   8
BRANCH   5  11
HETATM   11  N   UNL     1      58.875   6.104   2.426  1.00  0.00    -0.399 N 
HETATM   12  H   UNL     1      58.223   5.758   3.079  1.00  0.00     0.156 HD
HETATM   13  H   UNL     1      58.769   5.899   1.469  1.00  0.00     0.156 HD
ENDBRANCH   5  11
TORSDOF 2
ENDMDL
MODEL 9
REMARK VINA RESULT:      -3.5      1.921      3.077
REMARK  2 active torsions:
REMARK  status: ('A' for Active; 'I' for Inactive)
REMARK    1  A    between atoms: C_1  and  C_6 
REMARK    2  A    between atoms: C_5  and  N_8 
ROOT
HETATM    1  C   UNL     1      61.065   7.823   3.603  1.00  0.00    -0.049 A 
HETATM    2  C   UNL     1      62.001   8.834   3.214  1.00  0.00    -0.053 A 
HETATM    3  C   UNL     1      61.359   7.048   4.748  1.00  0.00     0.010 A 
HETATM    4  C   UNL     1      63.168   9.022   3.979  1.00  0.00     0.036 A 
HETATM    5  C   UNL     1      63.430   8.244   5.109  1.00  0.00     0.026 A 
HETATM    6  C   UNL     1      62.522   7.256   5.487  1.00  0.00     0.029 A 
HETATM    7  C   UNL     1      61.850   9.757   2.025  1.00  0.00     0.049 C 
ENDROOT
BRANCH   1   8
HETATM    8  C   UNL     1      59.758   7.529   2.857  1.00  0.00     0.011 C 
HETATM    9  C   UNL     1      59.842   6.199   2.096  1.00  0.00     0.015 C 
HETATM   10  C   UNL     1      58.563   7.523   3.821  1.00  0.00     0.015 C 
ENDBRANCH   1   8
BRANCH   5  11
HETATM   11  N   UNL     1      64.608   8.460   5.867  1.00  0.00    -0.399 N 
HETATM   12  H   UNL     1      64.742   7.978   6.715  1.00  0.00     0.156 HD
HETATM   13  H   UNL     1      65.291   9.091   5.546  1.00  0.00     0.156 HD
ENDBRANCH   5  11
TORSDOF 2
ENDMDL
