MODEL 1
REMARK VINA RESULT:      -4.2      0.000      0.000
REMARK  2 active torsions:
REMARK  status: ('A' for Active; 'I' for Inactive)
REMARK    1  A    between atoms: C_1  and  C_2 
REMARK    2  A    between atoms: C_2  and  O_8 
ROOT
HETATM    1  C   UNL     1      62.390   9.676   3.443  1.00  0.00     0.070 A 
HETATM    2  C   UNL     1      62.405  10.824   4.222  1.00  0.00     0.065 A 
HETATM    3  C   UNL     1      61.905  10.097   2.165  1.00  0.00     0.044 A 
HETATM    4  O   UNL     1      61.964  11.893   3.496  1.00  0.00    -0.326 OA
HETATM    5  C   UNL     1      61.665  11.444   2.254  1.00  0.00     0.143 A 
HETATM    6  C   UNL     1      62.780  11.139   5.618  1.00  0.00     0.077 C 
ENDROOT
BRANCH   1   7
HETATM    7  C   UNL     1      62.787   8.339   3.852  1.00  0.00     0.295 C 
HETATM    8  O   UNL     1      63.765   7.748   3.413  1.00  0.00    -0.259 OA
BRANCH   7   9
HETATM    9  O   UNL     1      61.935   7.823   4.789  1.00  0.00    -0.322 OA
HETATM   10  C   UNL     1      62.570   7.385   5.989  1.00  0.00     0.213 C 
ENDBRANCH   7   9
ENDBRANCH   1   7
TORSDOF 2
ENDMDL
MODEL 2
REMARK VINA RESULT:      -4.1      1.856      2.675
REMARK  2 active torsions:
REMARK  status: ('A' for Active; 'I' for Inactive)
REMARK    1  A    between atoms: C_1  and  C_2 
REMARK    2  A    between atoms: C_2  and  O_8 
ROOT
HETATM    1  C   UNL     1      62.803   9.641   4.300  1.00  0.00     0.070 A 
HETATM    2  C   UNL     1      62.588   9.069   3.054  1.00  0.00     0.065 A 
HETATM    3  C   UNL     1      62.276  10.967   4.199  1.00  0.00     0.044 A 
HETATM    4  O   UNL     1      61.972   9.962   2.224  1.00  0.00    -0.326 OA
HETATM    5  C   UNL     1      61.786  11.106   2.925  1.00  0.00     0.143 A 
HETATM    6  C   UNL     1      62.868   7.752   2.442  1.00  0.00     0.077 C 
ENDROOT
BRANCH   1   7
HETATM    7  C   UNL     1      63.430   9.013   5.451  1.00  0.00     0.295 C 
HETATM    8  O   UNL     1      62.834   8.320   6.265  1.00  0.00    -0.259 OA
BRANCH   7   9
HETATM    9  O   UNL     1      64.767   9.292   5.514  1.00  0.00    -0.322 OA
HETATM   10  C   UNL     1      65.615   8.151   5.392  1.00  0.00     0.213 C 
ENDBRANCH   7   9
ENDBRANCH   1   7
TORSDOF 2
ENDMDL
MODEL 3
REMARK VINA RESULT:      -4.0      1.735      1.982
REMARK  2 active torsions:
REMARK  status: ('A' for Active; 'I' for Inactive)
REMARK    1  A    between atoms: C_1  and  C_2 
REMARK    2  A    between atoms: C_2  and  O_8 
ROOT
HETATM    1  C   UNL     1      63.344   9.095   4.540  1.00  0.00     0.070 A 
HETATM    2  C   UNL     1      62.700  10.296   4.801  1.00  0.00     0.065 A 
HETATM    3  C   UNL     1      62.686   8.559   3.389  1.00  0.00     0.044 A 
HETATM    4  O   UNL     1      61.708  10.508   3.887  1.00  0.00    -0.326 OA
HETATM    5  C   UNL     1      61.708   9.453   3.037  1.00  0.00     0.143 A 
HETATM    6  C   UNL     1      62.842  11.365   5.814  1.00  0.00     0.077 C 
ENDROOT
BRANCH   1   7
HETATM    7  C   UNL     1      64.451   8.520   5.286  1.00  0.00     0.295 C 
HETATM    8  O   UNL     1      65.631   8.692   5.007  1.00  0.00    -0.259 OA
BRANCH   7   9
HETATM    9  O   UNL     1      64.014   7.764   6.338  1.00  0.00    -0.322 OA
HETATM   10  C   UNL     1      64.887   6.696   6.702  1.00  0.00     0.213 C 
ENDBRANCH   7   9
ENDBRANCH   1   7
TORSDOF 2
ENDMDL
MODEL 4
REMARK VINA RESULT:      -4.0      1.638      2.355
REMARK  2 active torsions:
REMARK  status: ('A' for Active; 'I' for Inactive)
REMARK    1  A    between atoms: C_1  and  C_2 
REMARK    2  A    between atoms: C_2  and  O_8 
ROOT
HETATM    1  C   UNL     1      62.985   9.600   4.368  1.00  0.00     0.070 A 
HETATM    2  C   UNL     1      62.661   9.017   3.151  1.00  0.00     0.065 A 
HETATM    3  C   UNL     1      62.403  10.906   4.324  1.00  0.00     0.044 A 
HETATM    4  O   UNL     1      61.930   9.885   2.391  1.00  0.00    -0.326 OA
HETATM    5  C   UNL     1      61.778  11.024   3.109  1.00  0.00     0.143 A 
HETATM    6  C   UNL     1      62.922   7.709   2.512  1.00  0.00     0.077 C 
ENDROOT
BRANCH   1   7
HETATM    7  C   UNL     1      63.751   8.999   5.446  1.00  0.00     0.295 C 
HETATM    8  O   UNL     1      64.949   9.178   5.621  1.00  0.00    -0.259 OA
BRANCH   7   9
HETATM    9  O   UNL     1      62.969   8.208   6.242  1.00  0.00    -0.322 OA
HETATM   10  C   UNL     1      63.379   6.842   6.304  1.00  0.00     0.213 C 
ENDBRANCH   7   9
ENDBRANCH   1   7
TORSDOF 2
ENDMDL
MODEL 5
REMARK VINA RESULT:      -3.8      2.040      3.192
REMARK  2 active torsions:
REMARK  status: ('A' for Active; 'I' for Inactive)
REMARK    1  A    between atoms: C_1  and  C_2 
REMARK    2  A    between atoms: C_2  and  O_8 
ROOT
HETATM    1  C   UNL     1      62.028   9.561   2.611  1.00  0.00     0.070 A 
HETATM    2  C   UNL     1      61.903  10.930   2.795  1.00  0.00     0.065 A 
HETATM    3  C   UNL     1      62.383   9.041   3.895  1.00  0.00     0.044 A 
HETATM    4  O   UNL     1      62.159  11.257   4.096  1.00  0.00    -0.326 OA
HETATM    5  C   UNL     1      62.447  10.108   4.753  1.00  0.00     0.143 A 
HETATM    6  C   UNL     1      61.566  12.079   1.926  1.00  0.00     0.077 C 
ENDROOT
BRANCH   1   7
HETATM    7  C   UNL     1      61.834   8.827   1.371  1.00  0.00     0.295 C 
HETATM    8  O   UNL     1      62.484   9.015   0.352  1.00  0.00    -0.259 OA
BRANCH   7   9
HETATM    9  O   UNL     1      60.835   7.899   1.483  1.00  0.00    -0.322 OA
HETATM   10  C   UNL     1      59.672   8.186   0.709  1.00  0.00     0.213 C 
ENDBRANCH   7   9
ENDBRANCH   1   7
TORSDOF 2
ENDMDL
MODEL 6
REMARK VINA RESULT:      -3.8      1.899      3.443
REMARK  2 active torsions:
REMARK  status: ('A' for Active; 'I' for Inactive)
REMARK    1  A    between atoms: C_1  and  C_2 
REMARK    2  A    between atoms: C_2  and  O_8 
ROOT
HETATM    1  C   UNL     1      63.334   8.726   4.160  1.00  0.00     0.070 A 
HETATM    2  C   UNL     1      63.557   9.751   5.067  1.00  0.00     0.065 A 
HETATM    3  C   UNL     1      64.428   7.822   4.339  1.00  0.00     0.044 A 
HETATM    4  O   UNL     1      64.705   9.519   5.769  1.00  0.00    -0.326 OA
HETATM    5  C   UNL     1      65.224   8.350   5.323  1.00  0.00     0.143 A 
HETATM    6  C   UNL     1      62.854  11.000   5.432  1.00  0.00     0.077 C 
ENDROOT
BRANCH   1   7
HETATM    7  C   UNL     1      62.220   8.608   3.233  1.00  0.00     0.295 C 
HETATM    8  O   UNL     1      61.044   8.718   3.555  1.00  0.00    -0.259 OA
BRANCH   7   9
HETATM    9  O   UNL     1      62.647   8.360   1.958  1.00  0.00    -0.322 OA
HETATM   10  C   UNL     1      62.082   9.219   0.968  1.00  0.00     0.213 C 
ENDBRANCH   7   9
ENDBRANCH   1   7
TORSDOF 2
ENDMDL
MODEL 7
REMARK VINA RESULT:      -3.7      1.852      3.006
REMARK  2 active torsions:
REMARK  status: ('A' for Active; 'I' for Inactive)
REMARK    1  A    between atoms: C_1  and  C_2 
REMARK    2  A    between atoms: C_2  and  O_8 
ROOT
HETATM    1  C   UNL     1      62.870   9.261   3.969  1.00  0.00     0.070 A 
HETATM    2  C   UNL     1      63.879   9.162   4.916  1.00  0.00     0.065 A 
HETATM    3  C   UNL     1      62.185  10.477   4.278  1.00  0.00     0.044 A 
HETATM    4  O   UNL     1      63.839  10.233   5.762  1.00  0.00    -0.326 OA
HETATM    5  C   UNL     1      62.812  11.023   5.368  1.00  0.00     0.143 A 
HETATM    6  C   UNL     1      64.955   8.188   5.206  1.00  0.00     0.077 C 
ENDROOT
BRANCH   1   7
HETATM    7  C   UNL     1      62.585   8.321   2.898  1.00  0.00     0.295 C 
HETATM    8  O   UNL     1      62.400   7.122   3.066  1.00  0.00    -0.259 OA
BRANCH   7   9
HETATM    9  O   UNL     1      62.548   8.939   1.679  1.00  0.00    -0.322 OA
HETATM   10  C   UNL     1      61.348   8.719   0.939  1.00  0.00     0.213 C 
ENDBRANCH   7   9
ENDBRANCH   1   7
TORSDOF 2
ENDMDL
MODEL 8
REMARK VINA RESULT:      -3.6      1.896      3.123
REMARK  2 active torsions:
REMARK  status: ('A' for Active; 'I' for Inactive)
REMARK    1  A    between atoms: C_1  and  C_2 
REMARK    2  A    between atoms: C_2  and  O_8 
ROOT
HETATM    1  C   UNL     1      61.753   9.461   2.847  1.00  0.00     0.070 A 
HETATM    2  C   UNL     1      60.967   8.319   2.803  1.00  0.00     0.065 A 
HETATM    3  C   UNL     1      62.163   9.685   1.496  1.00  0.00     0.044 A 
HETATM    4  O   UNL     1      60.883   7.852   1.523  1.00  0.00    -0.326 OA
HETATM    5  C   UNL     1      61.609   8.685   0.739  1.00  0.00     0.143 A 
HETATM    6  C   UNL     1      60.222   7.519   3.801  1.00  0.00     0.077 C 
ENDROOT
BRANCH   1   7
HETATM    7  C   UNL     1      62.080  10.250   4.023  1.00  0.00     0.295 C 
HETATM    8  O   UNL     1      61.892  11.456   4.115  1.00  0.00    -0.259 OA
BRANCH   7   9
HETATM    9  O   UNL     1      62.622   9.480   5.015  1.00  0.00    -0.322 OA
HETATM   10  C   UNL     1      63.961   9.053   4.767  1.00  0.00     0.213 C 
ENDBRANCH   7   9
ENDBRANCH   1   7
TORSDOF 2
ENDMDL
MODEL 9
REMARK VINA RESULT:      -3.6      1.616      2.064
REMARK  2 active torsions:
REMARK  status: ('A' for Active; 'I' for Inactive)
REMARK    1  A    between atoms: C_1  and  C_2 
REMARK    2  A    between atoms: C_2  and  O_8 
ROOT
HETATM    1  C   UNL     1      62.602   9.017   3.683  1.00  0.00     0.070 A 
HETATM    2  C   UNL     1      62.179  10.302   3.375  1.00  0.00     0.065 A 
HETATM    3  C   UNL     1      62.573   8.306   2.442  1.00  0.00     0.044 A 
HETATM    4  O   UNL     1      61.902  10.401   2.042  1.00  0.00    -0.326 OA
HETATM    5  C   UNL     1      62.143   9.190   1.486  1.00  0.00     0.143 A 
HETATM    6  C   UNL     1      61.968  11.549   4.143  1.00  0.00     0.077 C 
ENDROOT
BRANCH   1   7
HETATM    7  C   UNL     1      62.990   8.517   4.991  1.00  0.00     0.295 C 
HETATM    8  O   UNL     1      62.361   7.676   5.620  1.00  0.00    -0.259 OA
BRANCH   7   9
HETATM    9  O   UNL     1      64.145   9.101   5.434  1.00  0.00    -0.322 OA
HETATM   10  C   UNL     1      65.316   8.304   5.259  1.00  0.00     0.213 C 
ENDBRANCH   7   9
ENDBRANCH   1   7
TORSDOF 2
ENDMDL
