MODEL 1
REMARK VINA RESULT:      -3.6      0.000      0.000
REMARK  1 active torsions:
REMARK  status: ('A' for Active; 'I' for Inactive)
REMARK    1  A    between atoms: C_3  and  N_4 
ROOT
HETATM    1  N   UNL     1      63.516   9.741   5.644  1.00  0.00    -0.375 N 
ATOM      2  HN  UNL     1      64.034   9.480   6.484  1.00  0.00     0.164 HD
HETATM    3  C   UNL     1      62.019  10.429   3.367  1.00  0.00     0.028 A 
HETATM    4  C   UNL     1      62.676   9.204   3.445  1.00  0.00     0.046 A 
HETATM    5  C   UNL     1      62.188  11.335   4.411  1.00  0.00     0.046 A 
HETATM    6  C   UNL     1      62.921  10.946   5.521  1.00  0.00     0.089 A 
HETATM    7  C   UNL     1      63.389   8.902   4.595  1.00  0.00     0.089 A 
ENDROOT
BRANCH   3   8
HETATM    8  N   UNL     1      61.406  10.830   2.173  1.00  0.00    -0.399 N 
HETATM    9  H   UNL     1      60.463  11.113   2.175  1.00  0.00     0.156 HD
HETATM   10  H   UNL     1      61.919  10.830   1.333  1.00  0.00     0.156 HD
ENDBRANCH   3   8
TORSDOF 1
ENDMDL
MODEL 2
REMARK VINA RESULT:      -3.5      1.198      2.934
REMARK  1 active torsions:
REMARK  status: ('A' for Active; 'I' for Inactive)
REMARK    1  A    between atoms: C_3  and  N_4 
ROOT
HETATM    1  N   UNL     1      62.488   9.055   2.969  1.00  0.00    -0.375 N 
ATOM      2  HN  UNL     1      62.255   8.487   2.154  1.00  0.00     0.164 HD
HETATM    3  C   UNL     1      63.065  10.581   5.258  1.00  0.00     0.028 A 
HETATM    4  C   UNL     1      62.224  11.075   4.265  1.00  0.00     0.046 A 
HETATM    5  C   UNL     1      63.673   9.346   5.052  1.00  0.00     0.046 A 
HETATM    6  C   UNL     1      63.346   8.621   3.916  1.00  0.00     0.089 A 
HETATM    7  C   UNL     1      61.955  10.280   3.161  1.00  0.00     0.089 A 
ENDROOT
BRANCH   3   8
HETATM    8  N   UNL     1      63.471  11.403   6.316  1.00  0.00    -0.399 N 
HETATM    9  H   UNL     1      63.902  12.269   6.130  1.00  0.00     0.156 HD
HETATM   10  H   UNL     1      63.326  11.116   7.246  1.00  0.00     0.156 HD
ENDBRANCH   3   8
TORSDOF 1
ENDMDL
MODEL 3
REMARK VINA RESULT:      -3.5      0.113      1.774
REMARK  1 active torsions:
REMARK  status: ('A' for Active; 'I' for Inactive)
REMARK    1  A    between atoms: C_3  and  N_4 
ROOT
HETATM    1  N   UNL     1      63.560   9.698   5.614  1.00  0.00    -0.375 N 
ATOM      2  HN  UNL     1      64.112   9.460   6.438  1.00  0.00     0.164 HD
HETATM    3  C   UNL     1      62.109  10.386   3.307  1.00  0.00     0.028 A 
HETATM    4  C   UNL     1      62.199  11.266   4.382  1.00  0.00     0.046 A 
HETATM    5  C   UNL     1      62.691   9.128   3.435  1.00  0.00     0.046 A 
HETATM    6  C   UNL     1      63.411   8.839   4.584  1.00  0.00     0.089 A 
HETATM    7  C   UNL     1      62.939  10.890   5.492  1.00  0.00     0.089 A 
ENDROOT
BRANCH   3   8
HETATM    8  N   UNL     1      61.261  10.668   2.228  1.00  0.00    -0.399 N 
HETATM    9  H   UNL     1      60.739   9.944   1.811  1.00  0.00     0.156 HD
HETATM   10  H   UNL     1      61.186  11.588   1.888  1.00  0.00     0.156 HD
ENDBRANCH   3   8
TORSDOF 1
ENDMDL
MODEL 4
REMARK VINA RESULT:      -3.3      0.777      2.682
REMARK  1 active torsions:
REMARK  status: ('A' for Active; 'I' for Inactive)
REMARK    1  A    between atoms: C_3  and  N_4 
ROOT
HETATM    1  N   UNL     1      61.692  10.848   3.020  1.00  0.00    -0.375 N 
ATOM      2  HN  UNL     1      61.141  11.396   2.359  1.00  0.00     0.164 HD
HETATM    3  C   UNL     1      63.282   9.369   4.805  1.00  0.00     0.028 A 
HETATM    4  C   UNL     1      62.860   8.815   3.599  1.00  0.00     0.046 A 
HETATM    5  C   UNL     1      62.832  10.644   5.138  1.00  0.00     0.046 A 
HETATM    6  C   UNL     1      62.064  11.342   4.219  1.00  0.00     0.089 A 
HETATM    7  C   UNL     1      62.090   9.589   2.743  1.00  0.00     0.089 A 
ENDROOT
BRANCH   3   8
HETATM    8  N   UNL     1      63.940   8.579   5.756  1.00  0.00    -0.399 N 
HETATM    9  H   UNL     1      64.460   9.007   6.475  1.00  0.00     0.156 HD
HETATM   10  H   UNL     1      63.881   7.599   5.707  1.00  0.00     0.156 HD
ENDBRANCH   3   8
TORSDOF 1
ENDMDL
MODEL 5
REMARK VINA RESULT:      -3.1      1.297      3.225
REMARK  1 active torsions:
REMARK  status: ('A' for Active; 'I' for Inactive)
REMARK    1  A    between atoms: C_3  and  N_4 
ROOT
HETATM    1  N   UNL     1      61.581  11.325   2.342  1.00  0.00    -0.375 N 
ATOM      2  HN  UNL     1      61.174  12.139   1.880  1.00  0.00     0.164 HD
HETATM    3  C   UNL     1      62.622   9.055   3.632  1.00  0.00     0.028 A 
HETATM    4  C   UNL     1      62.426  10.244   4.329  1.00  0.00     0.046 A 
HETATM    5  C   UNL     1      62.363   9.043   2.264  1.00  0.00     0.046 A 
HETATM    6  C   UNL     1      61.834  10.181   1.674  1.00  0.00     0.089 A 
HETATM    7  C   UNL     1      61.895  11.333   3.654  1.00  0.00     0.089 A 
ENDROOT
BRANCH   3   8
HETATM    8  N   UNL     1      63.283   7.979   4.237  1.00  0.00    -0.399 N 
HETATM    9  H   UNL     1      63.296   7.899   5.218  1.00  0.00     0.156 HD
HETATM   10  H   UNL     1      63.733   7.303   3.681  1.00  0.00     0.156 HD
ENDBRANCH   3   8
TORSDOF 1
ENDMDL
MODEL 6
REMARK VINA RESULT:      -3.1      1.817      2.343
REMARK  1 active torsions:
REMARK  status: ('A' for Active; 'I' for Inactive)
REMARK    1  A    between atoms: C_3  and  N_4 
ROOT
HETATM    1  N   UNL     1      62.786   7.835   2.891  1.00  0.00    -0.375 N 
ATOM      2  HN  UNL     1      63.092   6.881   3.085  1.00  0.00     0.164 HD
HETATM    3  C   UNL     1      61.862  10.439   2.374  1.00  0.00     0.028 A 
HETATM    4  C   UNL     1      61.980   9.507   1.346  1.00  0.00     0.046 A 
HETATM    5  C   UNL     1      62.288  10.072   3.648  1.00  0.00     0.046 A 
HETATM    6  C   UNL     1      62.720   8.772   3.859  1.00  0.00     0.089 A 
HETATM    7  C   UNL     1      62.425   8.229   1.652  1.00  0.00     0.089 A 
ENDROOT
BRANCH   3   8
HETATM    8  N   UNL     1      61.552  11.774   2.088  1.00  0.00    -0.399 N 
HETATM    9  H   UNL     1      62.182  12.326   1.570  1.00  0.00     0.156 HD
HETATM   10  H   UNL     1      60.703  12.160   2.403  1.00  0.00     0.156 HD
ENDBRANCH   3   8
TORSDOF 1
ENDMDL
MODEL 7
REMARK VINA RESULT:      -2.9      5.696      6.836
REMARK  1 active torsions:
REMARK  status: ('A' for Active; 'I' for Inactive)
REMARK    1  A    between atoms: C_3  and  N_4 
ROOT
HETATM    1  N   UNL     1      65.924   4.611   8.204  1.00  0.00    -0.375 N 
ATOM      2  HN  UNL     1      65.677   3.651   8.446  1.00  0.00     0.164 HD
HETATM    3  C   UNL     1      66.663   7.226   7.483  1.00  0.00     0.028 A 
HETATM    4  C   UNL     1      67.284   6.577   8.547  1.00  0.00     0.046 A 
HETATM    5  C   UNL     1      65.614   6.576   6.837  1.00  0.00     0.046 A 
HETATM    6  C   UNL     1      65.296   5.281   7.216  1.00  0.00     0.089 A 
HETATM    7  C   UNL     1      66.898   5.281   8.856  1.00  0.00     0.089 A 
ENDROOT
BRANCH   3   8
HETATM    8  N   UNL     1      66.924   8.578   7.227  1.00  0.00    -0.399 N 
HETATM    9  H   UNL     1      66.440   9.044   6.508  1.00  0.00     0.156 HD
HETATM   10  H   UNL     1      67.590   9.061   7.767  1.00  0.00     0.156 HD
ENDBRANCH   3   8
TORSDOF 1
ENDMDL
MODEL 8
REMARK VINA RESULT:      -2.8     12.893     13.812
REMARK  1 active torsions:
REMARK  status: ('A' for Active; 'I' for Inactive)
REMARK    1  A    between atoms: C_3  and  N_4 
ROOT
HETATM    1  N   UNL     1      59.045   2.360  12.518  1.00  0.00    -0.375 N 
ATOM      2  HN  UNL     1      59.788   2.817  11.990  1.00  0.00     0.164 HD
HETATM    3  C   UNL     1      57.005   1.030  13.923  1.00  0.00     0.028 A 
HETATM    4  C   UNL     1      56.708   1.835  12.827  1.00  0.00     0.046 A 
HETATM    5  C   UNL     1      58.328   0.963  14.352  1.00  0.00     0.046 A 
HETATM    6  C   UNL     1      59.303   1.622  13.618  1.00  0.00     0.089 A 
HETATM    7  C   UNL     1      57.749   2.458  12.155  1.00  0.00     0.089 A 
ENDROOT
BRANCH   3   8
HETATM    8  N   UNL     1      55.977   0.497  14.711  1.00  0.00    -0.399 N 
HETATM    9  H   UNL     1      55.878   0.782  15.649  1.00  0.00     0.156 HD
HETATM   10  H   UNL     1      55.354  -0.161  14.328  1.00  0.00     0.156 HD
ENDBRANCH   3   8
TORSDOF 1
ENDMDL
MODEL 9
REMARK VINA RESULT:      -2.8      6.843      7.949
REMARK  1 active torsions:
REMARK  status: ('A' for Active; 'I' for Inactive)
REMARK    1  A    between atoms: C_3  and  N_4 
ROOT
HETATM    1  N   UNL     1      67.365   7.199   7.162  1.00  0.00    -0.375 N 
ATOM      2  HN  UNL     1      67.424   8.141   6.774  1.00  0.00     0.164 HD
HETATM    3  C   UNL     1      67.279   4.616   8.267  1.00  0.00     0.028 A 
HETATM    4  C   UNL     1      67.796   4.830   6.992  1.00  0.00     0.046 A 
HETATM    5  C   UNL     1      66.736   5.702   8.948  1.00  0.00     0.046 A 
HETATM    6  C   UNL     1      66.816   6.960   8.371  1.00  0.00     0.089 A 
HETATM    7  C   UNL     1      67.833   6.124   6.495  1.00  0.00     0.089 A 
ENDROOT
BRANCH   3   8
HETATM    8  N   UNL     1      67.096   3.314   8.749  1.00  0.00    -0.399 N 
HETATM    9  H   UNL     1      66.637   2.644   8.193  1.00  0.00     0.156 HD
HETATM   10  H   UNL     1      67.427   3.069   9.643  1.00  0.00     0.156 HD
ENDBRANCH   3   8
TORSDOF 1
ENDMDL
