MODEL 1
REMARK VINA RESULT:      -3.3      0.000      0.000
REMARK  0 active torsions:
REMARK  status: ('A' for Active; 'I' for Inactive)
ROOT
HETATM    1  C   UNL     1      62.199  10.695   3.585  1.00  0.00     0.319 C 
HETATM    2  N   UNL     1      62.043   9.528   2.827  1.00  0.00    -0.337 N 
HETATM    3  N   UNL     1      62.872  10.338   4.759  1.00  0.00    -0.337 N 
HETATM    4  O   UNL     1      61.823  11.815   3.278  1.00  0.00    -0.247 OA
HETATM    5  C   UNL     1      62.803   8.449   3.417  1.00  0.00     0.147 C 
HETATM    6  C   UNL     1      62.971   8.901   4.861  1.00  0.00     0.147 C 
HETATM    7  C   UNL     1      61.736   9.576   1.420  1.00  0.00     0.154 C 
HETATM    8  C   UNL     1      62.926  11.205   5.908  1.00  0.00     0.154 C 
ENDROOT
TORSDOF 0
ENDMDL
MODEL 2
REMARK VINA RESULT:      -3.2      2.134      2.738
REMARK  0 active torsions:
REMARK  status: ('A' for Active; 'I' for Inactive)
ROOT
HETATM    1  C   UNL     1      63.936   9.525   5.068  1.00  0.00     0.319 C 
HETATM    2  N   UNL     1      62.843   9.420   4.199  1.00  0.00    -0.337 N 
HETATM    3  N   UNL     1      64.744   8.402   4.853  1.00  0.00    -0.337 N 
HETATM    4  O   UNL     1      64.149  10.428   5.862  1.00  0.00    -0.247 OA
HETATM    5  C   UNL     1      63.051   8.333   3.270  1.00  0.00     0.147 C 
HETATM    6  C   UNL     1      64.070   7.460   3.990  1.00  0.00     0.147 C 
HETATM    7  C   UNL     1      62.018  10.559   3.882  1.00  0.00     0.154 C 
HETATM    8  C   UNL     1      65.777   8.010   5.777  1.00  0.00     0.154 C 
ENDROOT
TORSDOF 0
ENDMDL
MODEL 3
REMARK VINA RESULT:      -3.2      0.177      2.815
REMARK  0 active torsions:
REMARK  status: ('A' for Active; 'I' for Inactive)
ROOT
HETATM    1  C   UNL     1      62.137  10.577   3.513  1.00  0.00     0.319 C 
HETATM    2  N   UNL     1      62.899  10.292   4.653  1.00  0.00    -0.337 N 
HETATM    3  N   UNL     1      62.041   9.392   2.773  1.00  0.00    -0.337 N 
HETATM    4  O   UNL     1      61.643  11.655   3.220  1.00  0.00    -0.247 OA
HETATM    5  C   UNL     1      63.122   8.868   4.757  1.00  0.00     0.147 C 
HETATM    6  C   UNL     1      62.917   8.386   3.328  1.00  0.00     0.147 C 
HETATM    7  C   UNL     1      62.888  11.158   5.805  1.00  0.00     0.154 C 
HETATM    8  C   UNL     1      61.608   9.376   1.400  1.00  0.00     0.154 C 
ENDROOT
TORSDOF 0
ENDMDL
MODEL 4
REMARK VINA RESULT:      -3.2      2.171      3.268
REMARK  0 active torsions:
REMARK  status: ('A' for Active; 'I' for Inactive)
ROOT
HETATM    1  C   UNL     1      63.968   9.467   5.056  1.00  0.00     0.319 C 
HETATM    2  N   UNL     1      64.790   8.350   4.857  1.00  0.00    -0.337 N 
HETATM    3  N   UNL     1      62.883   9.343   4.181  1.00  0.00    -0.337 N 
HETATM    4  O   UNL     1      64.159  10.376   5.849  1.00  0.00    -0.247 OA
HETATM    5  C   UNL     1      64.128   7.395   3.998  1.00  0.00     0.147 C 
HETATM    6  C   UNL     1      63.105   8.250   3.263  1.00  0.00     0.147 C 
HETATM    7  C   UNL     1      65.781   7.958   5.827  1.00  0.00     0.154 C 
HETATM    8  C   UNL     1      62.009  10.447   3.881  1.00  0.00     0.154 C 
ENDROOT
TORSDOF 0
ENDMDL
MODEL 5
REMARK VINA RESULT:      -3.1      5.371      6.049
REMARK  0 active torsions:
REMARK  status: ('A' for Active; 'I' for Inactive)
ROOT
HETATM    1  C   UNL     1      65.606   6.846   6.906  1.00  0.00     0.319 C 
HETATM    2  N   UNL     1      66.062   6.646   5.597  1.00  0.00    -0.337 N 
HETATM    3  N   UNL     1      66.687   6.607   7.761  1.00  0.00    -0.337 N 
HETATM    4  O   UNL     1      64.477   7.173   7.239  1.00  0.00    -0.247 OA
HETATM    5  C   UNL     1      67.498   6.481   5.592  1.00  0.00     0.147 C 
HETATM    6  C   UNL     1      67.795   6.049   7.021  1.00  0.00     0.147 C 
HETATM    7  C   UNL     1      65.340   7.157   4.459  1.00  0.00     0.154 C 
HETATM    8  C   UNL     1      66.517   6.408   9.177  1.00  0.00     0.154 C 
ENDROOT
TORSDOF 0
ENDMDL
MODEL 6
REMARK VINA RESULT:      -2.9      1.822      2.875
REMARK  0 active torsions:
REMARK  status: ('A' for Active; 'I' for Inactive)
ROOT
HETATM    1  C   UNL     1      62.072   9.379   1.962  1.00  0.00     0.319 C 
HETATM    2  N   UNL     1      62.136  10.605   2.637  1.00  0.00    -0.337 N 
HETATM    3  N   UNL     1      62.185   8.370   2.925  1.00  0.00    -0.337 N 
HETATM    4  O   UNL     1      61.937   9.219   0.758  1.00  0.00    -0.247 OA
HETATM    5  C   UNL     1      62.081  10.388   4.064  1.00  0.00     0.147 C 
HETATM    6  C   UNL     1      62.532   8.941   4.206  1.00  0.00     0.147 C 
HETATM    7  C   UNL     1      61.686  11.829   2.024  1.00  0.00     0.154 C 
HETATM    8  C   UNL     1      62.477   7.004   2.576  1.00  0.00     0.154 C 
ENDROOT
TORSDOF 0
ENDMDL
MODEL 7
REMARK VINA RESULT:      -2.9      1.722      2.493
REMARK  0 active torsions:
REMARK  status: ('A' for Active; 'I' for Inactive)
ROOT
HETATM    1  C   UNL     1      62.649   9.083   3.491  1.00  0.00     0.319 C 
HETATM    2  N   UNL     1      62.671   8.544   2.198  1.00  0.00    -0.337 N 
HETATM    3  N   UNL     1      62.076  10.357   3.398  1.00  0.00    -0.337 N 
HETATM    4  O   UNL     1      63.048   8.542   4.510  1.00  0.00    -0.247 OA
HETATM    5  C   UNL     1      61.920   9.387   1.297  1.00  0.00     0.147 C 
HETATM    6  C   UNL     1      61.916  10.732   2.012  1.00  0.00     0.147 C 
HETATM    7  C   UNL     1      62.842   7.131   1.972  1.00  0.00     0.154 C 
HETATM    8  C   UNL     1      62.178  11.324   4.459  1.00  0.00     0.154 C 
ENDROOT
TORSDOF 0
ENDMDL
MODEL 8
REMARK VINA RESULT:      -2.8      3.885      4.744
REMARK  0 active torsions:
REMARK  status: ('A' for Active; 'I' for Inactive)
ROOT
HETATM    1  C   UNL     1      65.365   8.142   5.549  1.00  0.00     0.319 C 
HETATM    2  N   UNL     1      66.408   7.415   4.962  1.00  0.00    -0.337 N 
HETATM    3  N   UNL     1      64.257   7.289   5.621  1.00  0.00    -0.337 N 
HETATM    4  O   UNL     1      65.412   9.301   5.930  1.00  0.00    -0.247 OA
HETATM    5  C   UNL     1      66.039   6.023   4.846  1.00  0.00     0.147 C 
HETATM    6  C   UNL     1      64.518   6.070   4.892  1.00  0.00     0.147 C 
HETATM    7  C   UNL     1      67.781   7.843   5.070  1.00  0.00     0.154 C 
HETATM    8  C   UNL     1      62.926   7.778   5.871  1.00  0.00     0.154 C 
ENDROOT
TORSDOF 0
ENDMDL
MODEL 9
REMARK VINA RESULT:      -2.8      1.912      3.448
REMARK  0 active torsions:
REMARK  status: ('A' for Active; 'I' for Inactive)
ROOT
HETATM    1  C   UNL     1      63.070   8.473   3.359  1.00  0.00     0.319 C 
HETATM    2  N   UNL     1      63.285   8.687   4.726  1.00  0.00    -0.337 N 
HETATM    3  N   UNL     1      62.412   9.604   2.862  1.00  0.00    -0.337 N 
HETATM    4  O   UNL     1      63.401   7.488   2.718  1.00  0.00    -0.247 OA
HETATM    5  C   UNL     1      62.950  10.050   5.073  1.00  0.00     0.147 C 
HETATM    6  C   UNL     1      62.011  10.466   3.949  1.00  0.00     0.147 C 
HETATM    7  C   UNL     1      64.248   7.916   5.470  1.00  0.00     0.154 C 
HETATM    8  C   UNL     1      61.754   9.609   1.581  1.00  0.00     0.154 C 
ENDROOT
TORSDOF 0
ENDMDL
