MODEL 1
REMARK VINA RESULT:      -4.3      0.000      0.000
REMARK  1 active torsions:
REMARK  status: ('A' for Active; 'I' for Inactive)
REMARK    1  A    between atoms: C_1  and  C_4 
ROOT
HETATM    1  C   UNL     1      65.917   7.572   6.287  1.00  0.00     0.100 A 
HETATM    2  N   UNL     1      65.305   7.019   7.379  1.00  0.00    -0.360 N 
ATOM      3  HN  UNL     1      64.309   7.150   7.560  1.00  0.00     0.165 HD
HETATM    4  C   UNL     1      67.282   7.387   6.041  1.00  0.00     0.035 A 
HETATM    5  N   UNL     1      68.048   6.643   6.898  1.00  0.00    -0.366 N 
ATOM      6  HN  UNL     1      69.044   6.501   6.733  1.00  0.00     0.165 HD
HETATM    7  C   UNL     1      66.085   6.289   8.205  1.00  0.00     0.105 A 
HETATM    8  C   UNL     1      67.430   6.105   7.970  1.00  0.00     0.105 A 
HETATM    9  C   UNL     1      68.063   7.941   4.892  1.00  0.00     0.070 C 
ENDROOT
BRANCH   1  10
HETATM   10  C   UNL     1      64.990   8.369   5.419  1.00  0.00     0.173 C 
HETATM   11  O   UNL     1      64.751   9.557   5.615  1.00  0.00    -0.291 OA
HETATM   12  C   UNL     1      64.338   7.644   4.267  1.00  0.00     0.098 C 
ENDBRANCH   1  10
TORSDOF 1
ENDMDL
MODEL 2
REMARK VINA RESULT:      -4.3      4.102      5.691
REMARK  1 active torsions:
REMARK  status: ('A' for Active; 'I' for Inactive)
REMARK    1  A    between atoms: C_1  and  C_4 
ROOT
HETATM    1  C   UNL     1      61.704   9.529   3.767  1.00  0.00     0.100 A 
HETATM    2  N   UNL     1      60.524   9.013   3.306  1.00  0.00    -0.360 N 
ATOM      3  HN  UNL     1      59.836   9.594   2.826  1.00  0.00     0.165 HD
HETATM    4  C   UNL     1      62.647   8.729   4.423  1.00  0.00     0.035 A 
HETATM    5  N   UNL     1      62.406   7.396   4.624  1.00  0.00    -0.366 N 
ATOM      6  HN  UNL     1      63.083   6.801   5.101  1.00  0.00     0.165 HD
HETATM    7  C   UNL     1      60.316   7.695   3.518  1.00  0.00     0.105 A 
HETATM    8  C   UNL     1      61.238   6.902   4.164  1.00  0.00     0.105 A 
HETATM    9  C   UNL     1      63.964   9.174   4.974  1.00  0.00     0.070 C 
ENDROOT
BRANCH   1  10
HETATM   10  C   UNL     1      61.863  10.996   3.500  1.00  0.00     0.173 C 
HETATM   11  O   UNL     1      61.990  11.826   4.394  1.00  0.00    -0.291 OA
HETATM   12  C   UNL     1      61.859  11.432   2.054  1.00  0.00     0.098 C 
ENDBRANCH   1  10
TORSDOF 1
ENDMDL
MODEL 3
REMARK VINA RESULT:      -4.1      3.909      5.936
REMARK  1 active torsions:
REMARK  status: ('A' for Active; 'I' for Inactive)
REMARK    1  A    between atoms: C_1  and  C_4 
ROOT
HETATM    1  C   UNL     1      62.998   9.064   3.916  1.00  0.00     0.100 A 
HETATM    2  N   UNL     1      63.012   8.105   2.940  1.00  0.00    -0.360 N 
ATOM      3  HN  UNL     1      63.506   7.221   3.064  1.00  0.00     0.165 HD
HETATM    4  C   UNL     1      62.318  10.274   3.745  1.00  0.00     0.035 A 
HETATM    5  N   UNL     1      61.644  10.533   2.580  1.00  0.00    -0.366 N 
ATOM      6  HN  UNL     1      61.145  11.411   2.440  1.00  0.00     0.165 HD
HETATM    7  C   UNL     1      62.338   8.389   1.805  1.00  0.00     0.105 A 
HETATM    8  C   UNL     1      61.668   9.578   1.627  1.00  0.00     0.105 A 
HETATM    9  C   UNL     1      62.233  11.397   4.729  1.00  0.00     0.070 C 
ENDROOT
BRANCH   1  10
HETATM   10  C   UNL     1      63.769   8.682   5.144  1.00  0.00     0.173 C 
HETATM   11  O   UNL     1      64.799   9.252   5.489  1.00  0.00    -0.291 OA
HETATM   12  C   UNL     1      63.224   7.538   5.965  1.00  0.00     0.098 C 
ENDBRANCH   1  10
TORSDOF 1
ENDMDL
MODEL 4
REMARK VINA RESULT:      -4.1      3.028      5.012
REMARK  1 active torsions:
REMARK  status: ('A' for Active; 'I' for Inactive)
REMARK    1  A    between atoms: C_1  and  C_4 
ROOT
HETATM    1  C   UNL     1      63.771   8.940   4.961  1.00  0.00     0.100 A 
HETATM    2  N   UNL     1      63.545  10.103   5.645  1.00  0.00    -0.360 N 
ATOM      3  HN  UNL     1      64.000  10.298   6.537  1.00  0.00     0.165 HD
HETATM    4  C   UNL     1      63.147   8.677   3.736  1.00  0.00     0.035 A 
HETATM    5  N   UNL     1      62.283   9.587   3.188  1.00  0.00    -0.366 N 
ATOM      6  HN  UNL     1      61.819   9.409   2.297  1.00  0.00     0.165 HD
HETATM    7  C   UNL     1      62.689  10.981   5.078  1.00  0.00     0.105 A 
HETATM    8  C   UNL     1      62.069  10.729   3.875  1.00  0.00     0.105 A 
HETATM    9  C   UNL     1      63.308   7.448   2.899  1.00  0.00     0.070 C 
ENDROOT
BRANCH   1  10
HETATM   10  C   UNL     1      64.728   8.014   5.650  1.00  0.00     0.173 C 
HETATM   11  O   UNL     1      64.401   7.300   6.593  1.00  0.00    -0.291 OA
HETATM   12  C   UNL     1      66.147   7.990   5.136  1.00  0.00     0.098 C 
ENDBRANCH   1  10
TORSDOF 1
ENDMDL
MODEL 5
REMARK VINA RESULT:      -4.0      2.700      4.701
REMARK  1 active torsions:
REMARK  status: ('A' for Active; 'I' for Inactive)
REMARK    1  A    between atoms: C_1  and  C_4 
ROOT
HETATM    1  C   UNL     1      64.277   8.789   4.940  1.00  0.00     0.100 A 
HETATM    2  N   UNL     1      63.948   9.932   5.618  1.00  0.00    -0.360 N 
ATOM      3  HN  UNL     1      64.504  10.267   6.405  1.00  0.00     0.165 HD
HETATM    4  C   UNL     1      63.515   8.335   3.858  1.00  0.00     0.035 A 
HETATM    5  N   UNL     1      62.407   9.028   3.449  1.00  0.00    -0.366 N 
ATOM      6  HN  UNL     1      61.840   8.708   2.664  1.00  0.00     0.165 HD
HETATM    7  C   UNL     1      62.852  10.595   5.190  1.00  0.00     0.105 A 
HETATM    8  C   UNL     1      62.096  10.153   4.128  1.00  0.00     0.105 A 
HETATM    9  C   UNL     1      63.766   7.105   3.044  1.00  0.00     0.070 C 
ENDROOT
BRANCH   1  10
HETATM   10  C   UNL     1      65.501   8.107   5.472  1.00  0.00     0.173 C 
HETATM   11  O   UNL     1      66.632   8.356   5.065  1.00  0.00    -0.291 OA
HETATM   12  C   UNL     1      65.294   7.072   6.551  1.00  0.00     0.098 C 
ENDBRANCH   1  10
TORSDOF 1
ENDMDL
MODEL 6
REMARK VINA RESULT:      -4.0      1.548      2.431
REMARK  1 active torsions:
REMARK  status: ('A' for Active; 'I' for Inactive)
REMARK    1  A    between atoms: C_1  and  C_4 
ROOT
HETATM    1  C   UNL     1      66.531   6.956   7.061  1.00  0.00     0.100 A 
HETATM    2  N   UNL     1      67.454   7.208   8.039  1.00  0.00    -0.360 N 
ATOM      3  HN  UNL     1      68.024   8.054   8.034  1.00  0.00     0.165 HD
HETATM    4  C   UNL     1      65.749   5.796   7.072  1.00  0.00     0.035 A 
HETATM    5  N   UNL     1      65.894   4.871   8.072  1.00  0.00    -0.366 N 
ATOM      6  HN  UNL     1      65.333   4.020   8.093  1.00  0.00     0.165 HD
HETATM    7  C   UNL     1      67.573   6.279   9.011  1.00  0.00     0.105 A 
HETATM    8  C   UNL     1      66.810   5.133   9.028  1.00  0.00     0.105 A 
HETATM    9  C   UNL     1      64.715   5.407   6.064  1.00  0.00     0.070 C 
ENDROOT
BRANCH   1  10
HETATM   10  C   UNL     1      66.456   8.028   6.015  1.00  0.00     0.173 C 
HETATM   11  O   UNL     1      65.747   9.023   6.131  1.00  0.00    -0.291 OA
HETATM   12  C   UNL     1      67.302   7.839   4.779  1.00  0.00     0.098 C 
ENDBRANCH   1  10
TORSDOF 1
ENDMDL
MODEL 7
REMARK VINA RESULT:      -3.9      4.328      5.696
REMARK  1 active torsions:
REMARK  status: ('A' for Active; 'I' for Inactive)
REMARK    1  A    between atoms: C_1  and  C_4 
ROOT
HETATM    1  C   UNL     1      62.111   9.448   3.335  1.00  0.00     0.100 A 
HETATM    2  N   UNL     1      61.700  10.750   3.436  1.00  0.00    -0.360 N 
ATOM      3  HN  UNL     1      61.081  11.171   2.743  1.00  0.00     0.165 HD
HETATM    4  C   UNL     1      62.958   8.872   4.288  1.00  0.00     0.035 A 
HETATM    5  N   UNL     1      63.404   9.605   5.355  1.00  0.00    -0.366 N 
ATOM      6  HN  UNL     1      64.023   9.200   6.056  1.00  0.00     0.165 HD
HETATM    7  C   UNL     1      62.155  11.446   4.499  1.00  0.00     0.105 A 
HETATM    8  C   UNL     1      62.990  10.887   5.440  1.00  0.00     0.105 A 
HETATM    9  C   UNL     1      63.479   7.469   4.286  1.00  0.00     0.070 C 
ENDROOT
BRANCH   1  10
HETATM   10  C   UNL     1      61.570   8.739   2.130  1.00  0.00     0.173 C 
HETATM   11  O   UNL     1      60.628   7.955   2.186  1.00  0.00    -0.291 OA
HETATM   12  C   UNL     1      62.242   9.024   0.808  1.00  0.00     0.098 C 
ENDBRANCH   1  10
TORSDOF 1
ENDMDL
MODEL 8
REMARK VINA RESULT:      -3.9      5.142      6.254
REMARK  1 active torsions:
REMARK  status: ('A' for Active; 'I' for Inactive)
REMARK    1  A    between atoms: C_1  and  C_4 
ROOT
HETATM    1  C   UNL     1      61.844   9.263   2.730  1.00  0.00     0.100 A 
HETATM    2  N   UNL     1      62.156   8.287   3.637  1.00  0.00    -0.360 N 
ATOM      3  HN  UNL     1      62.053   7.297   3.415  1.00  0.00     0.165 HD
HETATM    4  C   UNL     1      61.989  10.621   3.036  1.00  0.00     0.035 A 
HETATM    5  N   UNL     1      62.448  11.010   4.266  1.00  0.00    -0.366 N 
ATOM      6  HN  UNL     1      62.557  11.996   4.505  1.00  0.00     0.165 HD
HETATM    7  C   UNL     1      62.608   8.702   4.840  1.00  0.00     0.105 A 
HETATM    8  C   UNL     1      62.751  10.036   5.150  1.00  0.00     0.105 A 
HETATM    9  C   UNL     1      61.679  11.776   2.138  1.00  0.00     0.070 C 
ENDROOT
BRANCH   1  10
HETATM   10  C   UNL     1      61.347   8.730   1.420  1.00  0.00     0.173 C 
HETATM   11  O   UNL     1      60.167   8.462   1.215  1.00  0.00    -0.291 OA
HETATM   12  C   UNL     1      62.372   8.521   0.332  1.00  0.00     0.098 C 
ENDBRANCH   1  10
TORSDOF 1
ENDMDL
MODEL 9
REMARK VINA RESULT:      -3.8      3.053      4.415
REMARK  1 active torsions:
REMARK  status: ('A' for Active; 'I' for Inactive)
REMARK    1  A    between atoms: C_1  and  C_4 
ROOT
HETATM    1  C   UNL     1      63.047   8.660   3.892  1.00  0.00     0.100 A 
HETATM    2  N   UNL     1      63.708   7.515   3.536  1.00  0.00    -0.360 N 
ATOM      3  HN  UNL     1      63.371   6.913   2.785  1.00  0.00     0.165 HD
HETATM    4  C   UNL     1      63.513   9.485   4.921  1.00  0.00     0.035 A 
HETATM    5  N   UNL     1      64.653   9.162   5.608  1.00  0.00    -0.366 N 
ATOM      6  HN  UNL     1      65.004   9.752   6.362  1.00  0.00     0.165 HD
HETATM    7  C   UNL     1      64.829   7.224   4.231  1.00  0.00     0.105 A 
HETATM    8  C   UNL     1      65.293   8.029   5.247  1.00  0.00     0.105 A 
HETATM    9  C   UNL     1      62.882  10.752   5.403  1.00  0.00     0.070 C 
ENDROOT
BRANCH   1  10
HETATM   10  C   UNL     1      61.813   8.917   3.081  1.00  0.00     0.173 C 
HETATM   11  O   UNL     1      60.698   8.538   3.427  1.00  0.00    -0.291 OA
HETATM   12  C   UNL     1      61.989   9.673   1.786  1.00  0.00     0.098 C 
ENDBRANCH   1  10
TORSDOF 1
ENDMDL
