MODEL 1
REMARK VINA RESULT:      -3.7      0.000      0.000
REMARK  1 active torsions:
REMARK  status: ('A' for Active; 'I' for Inactive)
REMARK    1  A    between atoms: N_1  and  C_2 
ROOT
HETATM    1  C   UNL     1      63.052   9.229   4.487  1.00  0.00     0.032 A 
HETATM    2  N   UNL     1      61.615  10.988   2.768  1.00  0.00    -0.375 N 
ATOM      3  HN  UNL     1      61.102  11.620   2.154  1.00  0.00     0.164 HD
HETATM    4  C   UNL     1      62.668   8.854   3.193  1.00  0.00     0.046 A 
HETATM    5  C   UNL     1      62.681  10.512   4.885  1.00  0.00     0.046 A 
HETATM    6  C   UNL     1      61.987  11.341   4.013  1.00  0.00     0.089 A 
HETATM    7  C   UNL     1      61.968   9.743   2.388  1.00  0.00     0.089 A 
ENDROOT
BRANCH   1   8
HETATM    8  N   UNL     1      63.734   8.367   5.326  1.00  0.00    -0.389 N 
HETATM    9  C   UNL     1      63.025   7.346   6.088  1.00  0.00     0.149 C 
HETATM   10  C   UNL     1      65.191   8.284   5.327  1.00  0.00     0.149 C 
ENDBRANCH   1   8
TORSDOF 1
ENDMDL
MODEL 2
REMARK VINA RESULT:      -3.7      0.433      1.987
REMARK  1 active torsions:
REMARK  status: ('A' for Active; 'I' for Inactive)
REMARK    1  A    between atoms: N_1  and  C_2 
ROOT
HETATM    1  C   UNL     1      62.749   9.270   4.177  1.00  0.00     0.032 A 
HETATM    2  N   UNL     1      61.531  11.122   2.389  1.00  0.00    -0.375 N 
ATOM      3  HN  UNL     1      61.094  11.783   1.747  1.00  0.00     0.164 HD
HETATM    4  C   UNL     1      62.427  10.576   4.566  1.00  0.00     0.046 A 
HETATM    5  C   UNL     1      62.444   8.934   2.859  1.00  0.00     0.046 A 
HETATM    6  C   UNL     1      61.844   9.866   2.022  1.00  0.00     0.089 A 
HETATM    7  C   UNL     1      61.834  11.448   3.662  1.00  0.00     0.089 A 
ENDROOT
BRANCH   1   8
HETATM    8  N   UNL     1      63.356   8.377   5.042  1.00  0.00    -0.389 N 
HETATM    9  C   UNL     1      64.786   8.454   5.315  1.00  0.00     0.149 C 
HETATM   10  C   UNL     1      62.582   7.471   5.884  1.00  0.00     0.149 C 
ENDBRANCH   1   8
TORSDOF 1
ENDMDL
MODEL 3
REMARK VINA RESULT:      -3.6      1.485      3.642
REMARK  1 active torsions:
REMARK  status: ('A' for Active; 'I' for Inactive)
REMARK    1  A    between atoms: N_1  and  C_2 
ROOT
HETATM    1  C   UNL     1      62.383   9.273   3.365  1.00  0.00     0.032 A 
HETATM    2  N   UNL     1      63.746  10.171   5.698  1.00  0.00    -0.375 N 
ATOM      3  HN  UNL     1      64.236  10.491   6.533  1.00  0.00     0.164 HD
HETATM    4  C   UNL     1      62.060  10.481   3.996  1.00  0.00     0.046 A 
HETATM    5  C   UNL     1      63.407   8.533   3.954  1.00  0.00     0.046 A 
HETATM    6  C   UNL     1      64.051   9.011   5.088  1.00  0.00     0.089 A 
HETATM    7  C   UNL     1      62.750  10.881   5.132  1.00  0.00     0.089 A 
ENDROOT
BRANCH   1   8
HETATM    8  N   UNL     1      61.708   8.830   2.242  1.00  0.00    -0.389 N 
HETATM    9  C   UNL     1      62.169   9.183   0.904  1.00  0.00     0.149 C 
HETATM   10  C   UNL     1      60.654   7.825   2.321  1.00  0.00     0.149 C 
ENDBRANCH   1   8
TORSDOF 1
ENDMDL
MODEL 4
REMARK VINA RESULT:      -3.6      1.497      3.433
REMARK  1 active torsions:
REMARK  status: ('A' for Active; 'I' for Inactive)
REMARK    1  A    between atoms: N_1  and  C_2 
ROOT
HETATM    1  C   UNL     1      62.382   9.254   3.367  1.00  0.00     0.032 A 
HETATM    2  N   UNL     1      63.708  10.206   5.700  1.00  0.00    -0.375 N 
ATOM      3  HN  UNL     1      64.181  10.548   6.536  1.00  0.00     0.164 HD
HETATM    4  C   UNL     1      63.393   8.520   3.999  1.00  0.00     0.046 A 
HETATM    5  C   UNL     1      62.069  10.483   3.945  1.00  0.00     0.046 A 
HETATM    6  C   UNL     1      62.736  10.907   5.088  1.00  0.00     0.089 A 
HETATM    7  C   UNL     1      64.014   9.021   5.135  1.00  0.00     0.089 A 
ENDROOT
BRANCH   1   8
HETATM    8  N   UNL     1      61.751   8.798   2.224  1.00  0.00    -0.389 N 
HETATM    9  C   UNL     1      62.172   9.252   0.903  1.00  0.00     0.149 C 
HETATM   10  C   UNL     1      60.800   7.692   2.256  1.00  0.00     0.149 C 
ENDBRANCH   1   8
TORSDOF 1
ENDMDL
MODEL 5
REMARK VINA RESULT:      -3.5      1.859      2.499
REMARK  1 active torsions:
REMARK  status: ('A' for Active; 'I' for Inactive)
REMARK    1  A    between atoms: N_1  and  C_2 
ROOT
HETATM    1  C   UNL     1      62.600   8.767   2.587  1.00  0.00     0.032 A 
HETATM    2  N   UNL     1      61.744  11.438   3.083  1.00  0.00    -0.375 N 
ATOM      3  HN  UNL     1      61.440  12.394   3.264  1.00  0.00     0.164 HD
HETATM    4  C   UNL     1      62.198   9.623   1.554  1.00  0.00     0.046 A 
HETATM    5  C   UNL     1      62.548   9.300   3.874  1.00  0.00     0.046 A 
HETATM    6  C   UNL     1      62.131  10.610   4.071  1.00  0.00     0.089 A 
HETATM    7  C   UNL     1      61.788  10.919   1.840  1.00  0.00     0.089 A 
ENDROOT
BRANCH   1   8
HETATM    8  N   UNL     1      62.998   7.465   2.345  1.00  0.00    -0.389 N 
HETATM    9  C   UNL     1      62.579   6.766   1.136  1.00  0.00     0.149 C 
HETATM   10  C   UNL     1      64.019   6.808   3.154  1.00  0.00     0.149 C 
ENDBRANCH   1   8
TORSDOF 1
ENDMDL
MODEL 6
REMARK VINA RESULT:      -3.0      9.867     12.143
REMARK  1 active torsions:
REMARK  status: ('A' for Active; 'I' for Inactive)
REMARK    1  A    between atoms: N_1  and  C_2 
ROOT
HETATM    1  C   UNL     1      58.319   2.244  11.843  1.00  0.00     0.032 A 
HETATM    2  N   UNL     1      57.446   1.754  14.509  1.00  0.00    -0.375 N 
ATOM      3  HN  UNL     1      57.136   1.579  15.464  1.00  0.00     0.164 HD
HETATM    4  C   UNL     1      56.979   2.387  12.224  1.00  0.00     0.046 A 
HETATM    5  C   UNL     1      59.198   1.839  12.846  1.00  0.00     0.046 A 
HETATM    6  C   UNL     1      58.732   1.617  14.135  1.00  0.00     0.089 A 
HETATM    7  C   UNL     1      56.596   2.138  13.535  1.00  0.00     0.089 A 
ENDROOT
BRANCH   1   8
HETATM    8  N   UNL     1      58.738   2.465  10.544  1.00  0.00    -0.389 N 
HETATM    9  C   UNL     1      59.214   1.366   9.712  1.00  0.00     0.149 C 
HETATM   10  C   UNL     1      58.523   3.742   9.870  1.00  0.00     0.149 C 
ENDBRANCH   1   8
TORSDOF 1
ENDMDL
MODEL 7
REMARK VINA RESULT:      -3.0      1.453      4.104
REMARK  1 active torsions:
REMARK  status: ('A' for Active; 'I' for Inactive)
REMARK    1  A    between atoms: N_1  and  C_2 
ROOT
HETATM    1  C   UNL     1      63.330   8.708   3.842  1.00  0.00     0.032 A 
HETATM    2  N   UNL     1      65.238   6.838   4.828  1.00  0.00    -0.375 N 
ATOM      3  HN  UNL     1      65.921   6.167   5.179  1.00  0.00     0.164 HD
HETATM    4  C   UNL     1      64.091   8.958   4.991  1.00  0.00     0.046 A 
HETATM    5  C   UNL     1      63.558   7.485   3.215  1.00  0.00     0.046 A 
HETATM    6  C   UNL     1      64.503   6.604   3.725  1.00  0.00     0.089 A 
HETATM    7  C   UNL     1      65.010   8.019   5.438  1.00  0.00     0.089 A 
ENDROOT
BRANCH   1   8
HETATM    8  N   UNL     1      62.392   9.611   3.375  1.00  0.00    -0.389 N 
HETATM    9  C   UNL     1      62.109  10.842   4.103  1.00  0.00     0.149 C 
HETATM   10  C   UNL     1      61.807   9.496   2.043  1.00  0.00     0.149 C 
ENDBRANCH   1   8
TORSDOF 1
ENDMDL
MODEL 8
REMARK VINA RESULT:      -3.0      2.289      3.774
REMARK  1 active torsions:
REMARK  status: ('A' for Active; 'I' for Inactive)
REMARK    1  A    between atoms: N_1  and  C_2 
ROOT
HETATM    1  C   UNL     1      65.387   7.407   6.108  1.00  0.00     0.032 A 
HETATM    2  N   UNL     1      62.814   8.170   5.156  1.00  0.00    -0.375 N 
ATOM      3  HN  UNL     1      61.892   8.443   4.818  1.00  0.00     0.164 HD
HETATM    4  C   UNL     1      65.219   8.401   5.136  1.00  0.00     0.046 A 
HETATM    5  C   UNL     1      64.219   6.808   6.575  1.00  0.00     0.046 A 
HETATM    6  C   UNL     1      62.983   7.215   6.089  1.00  0.00     0.089 A 
HETATM    7  C   UNL     1      63.946   8.743   4.700  1.00  0.00     0.089 A 
ENDROOT
BRANCH   1   8
HETATM    8  N   UNL     1      66.639   7.026   6.557  1.00  0.00    -0.389 N 
HETATM    9  C   UNL     1      66.886   6.789   7.975  1.00  0.00     0.149 C 
HETATM   10  C   UNL     1      67.701   6.629   5.638  1.00  0.00     0.149 C 
ENDBRANCH   1   8
TORSDOF 1
ENDMDL
MODEL 9
REMARK VINA RESULT:      -3.0      2.256      4.855
REMARK  1 active torsions:
REMARK  status: ('A' for Active; 'I' for Inactive)
REMARK    1  A    between atoms: N_1  and  C_2 
ROOT
HETATM    1  C   UNL     1      64.666   7.431   5.781  1.00  0.00     0.032 A 
HETATM    2  N   UNL     1      66.986   7.340   7.429  1.00  0.00    -0.375 N 
ATOM      3  HN  UNL     1      67.817   7.305   8.020  1.00  0.00     0.164 HD
HETATM    4  C   UNL     1      65.809   8.189   5.497  1.00  0.00     0.046 A 
HETATM    5  C   UNL     1      64.730   6.636   6.924  1.00  0.00     0.046 A 
HETATM    6  C   UNL     1      65.884   6.615   7.696  1.00  0.00     0.089 A 
HETATM    7  C   UNL     1      66.919   8.115   6.327  1.00  0.00     0.089 A 
ENDROOT
BRANCH   1   8
HETATM    8  N   UNL     1      63.533   7.489   4.989  1.00  0.00    -0.389 N 
HETATM    9  C   UNL     1      62.417   6.576   5.209  1.00  0.00     0.149 C 
HETATM   10  C   UNL     1      63.300   8.586   4.056  1.00  0.00     0.149 C 
ENDBRANCH   1   8
TORSDOF 1
ENDMDL
