MODEL 1
REMARK VINA RESULT:      -5.0      0.000      0.000
REMARK  6 active torsions:
REMARK  status: ('A' for Active; 'I' for Inactive)
REMARK    1  A    between atoms: C_1  and  O_6 
REMARK    2  A    between atoms: C_1  and  C_2 
REMARK    3  A    between atoms: C_2  and  C_4 
REMARK    4  A    between atoms: C_2  and  N_5 
REMARK    5  A    between atoms: C_4  and  C_7 
REMARK    6  A    between atoms: O_6  and  C_8 
ROOT
HETATM    1  C   UNL     1      63.322  10.534   5.095  1.00  0.00     0.286 C 
ENDROOT
BRANCH   1   2
HETATM    2  C   UNL     1      62.218  11.100   4.218  1.00  0.00     0.289 C 
HETATM    3  O   UNL     1      61.812  12.233   4.420  1.00  0.00    -0.263 OA
BRANCH   2   4
HETATM    4  O   UNL     1      61.697  10.341   3.216  1.00  0.00    -0.320 OA
BRANCH   4   5
HETATM    5  C   UNL     1      61.896  10.520   1.855  1.00  0.00     0.174 C 
HETATM    6  C   UNL     1      62.159   9.207   1.112  1.00  0.00     0.034 C 
ENDBRANCH   4   5
ENDBRANCH   2   4
ENDBRANCH   1   2
BRANCH   1   7
HETATM    7  C   UNL     1      63.071   9.045   5.400  1.00  0.00     0.081 C 
BRANCH   7   8
HETATM    8  C   UNL     1      64.159   8.156   4.838  1.00  0.00    -0.056 A 
HETATM    9  C   UNL     1      65.471   8.231   5.340  1.00  0.00     0.007 A 
HETATM   10  C   UNL     1      66.472   7.395   4.832  1.00  0.00     0.001 A 
HETATM   11  C   UNL     1      66.176   6.482   3.820  1.00  0.00     0.000 A 
HETATM   12  C   UNL     1      64.876   6.400   3.311  1.00  0.00     0.001 A 
HETATM   13  C   UNL     1      63.870   7.230   3.818  1.00  0.00     0.007 A 
ENDBRANCH   7   8
ENDBRANCH   1   7
BRANCH   1  14
HETATM   14  N   UNL     1      63.444  11.303   6.332  1.00  0.00    -0.066 N 
HETATM   15  H   UNL     1      62.994  12.211   6.213  1.00  0.00     0.275 HD
HETATM   16  H   UNL     1      64.430  11.438   6.554  1.00  0.00     0.275 HD
HETATM   17  H   UNL     1      62.991  10.796   7.093  1.00  0.00     0.275 HD
ENDBRANCH   1  14
TORSDOF 6
ENDMDL
MODEL 2
REMARK VINA RESULT:      -5.0      3.042      5.453
REMARK  6 active torsions:
REMARK  status: ('A' for Active; 'I' for Inactive)
REMARK    1  A    between atoms: C_1  and  O_6 
REMARK    2  A    between atoms: C_1  and  C_2 
REMARK    3  A    between atoms: C_2  and  C_4 
REMARK    4  A    between atoms: C_2  and  N_5 
REMARK    5  A    between atoms: C_4  and  C_7 
REMARK    6  A    between atoms: O_6  and  C_8 
ROOT
HETATM    1  C   UNL     1      64.729   7.830   4.469  1.00  0.00     0.286 C 
ENDROOT
BRANCH   1   2
HETATM    2  C   UNL     1      65.532   8.068   5.735  1.00  0.00     0.289 C 
HETATM    3  O   UNL     1      65.668   9.206   6.156  1.00  0.00    -0.263 OA
BRANCH   2   4
HETATM    4  O   UNL     1      66.089   7.012   6.390  1.00  0.00    -0.320 OA
BRANCH   4   5
HETATM    5  C   UNL     1      65.764   6.565   7.663  1.00  0.00     0.174 C 
HETATM    6  C   UNL     1      66.903   6.748   8.669  1.00  0.00     0.034 C 
ENDBRANCH   4   5
ENDBRANCH   2   4
ENDBRANCH   1   2
BRANCH   1   7
HETATM    7  C   UNL     1      63.234   8.112   4.708  1.00  0.00     0.081 C 
BRANCH   7   8
HETATM    8  C   UNL     1      62.695   9.171   3.770  1.00  0.00    -0.056 A 
HETATM    9  C   UNL     1      62.373  10.453   4.253  1.00  0.00     0.007 A 
HETATM   10  C   UNL     1      61.892  11.437   3.381  1.00  0.00     0.001 A 
HETATM   11  C   UNL     1      61.724  11.152   2.026  1.00  0.00     0.000 A 
HETATM   12  C   UNL     1      62.038   9.881   1.536  1.00  0.00     0.001 A 
HETATM   13  C   UNL     1      62.523   8.893   2.401  1.00  0.00     0.007 A 
ENDBRANCH   7   8
ENDBRANCH   1   7
BRANCH   1  14
HETATM   14  N   UNL     1      64.927   6.468   3.980  1.00  0.00    -0.066 N 
HETATM   15  H   UNL     1      64.401   5.817   4.563  1.00  0.00     0.275 HD
HETATM   16  H   UNL     1      65.919   6.233   4.018  1.00  0.00     0.275 HD
HETATM   17  H   UNL     1      64.600   6.402   3.016  1.00  0.00     0.275 HD
ENDBRANCH   1  14
TORSDOF 6
ENDMDL
MODEL 3
REMARK VINA RESULT:      -4.6      2.758      5.136
REMARK  6 active torsions:
REMARK  status: ('A' for Active; 'I' for Inactive)
REMARK    1  A    between atoms: C_1  and  O_6 
REMARK    2  A    between atoms: C_1  and  C_2 
REMARK    3  A    between atoms: C_2  and  C_4 
REMARK    4  A    between atoms: C_2  and  N_5 
REMARK    5  A    between atoms: C_4  and  C_7 
REMARK    6  A    between atoms: O_6  and  C_8 
ROOT
HETATM    1  C   UNL     1      63.874   7.862   5.464  1.00  0.00     0.286 C 
ENDROOT
BRANCH   1   2
HETATM    2  C   UNL     1      65.345   7.971   5.823  1.00  0.00     0.289 C 
HETATM    3  O   UNL     1      65.816   9.062   6.105  1.00  0.00    -0.263 OA
BRANCH   2   4
HETATM    4  O   UNL     1      66.123   6.853   5.833  1.00  0.00    -0.320 OA
BRANCH   4   5
HETATM    5  C   UNL     1      66.994   6.462   6.839  1.00  0.00     0.174 C 
HETATM    6  C   UNL     1      67.745   5.169   6.509  1.00  0.00     0.034 C 
ENDBRANCH   4   5
ENDBRANCH   2   4
ENDBRANCH   1   2
BRANCH   1   7
HETATM    7  C   UNL     1      63.335   9.210   4.948  1.00  0.00     0.081 C 
BRANCH   7   8
HETATM    8  C   UNL     1      62.812   9.111   3.531  1.00  0.00    -0.056 A 
HETATM    9  C   UNL     1      62.157  10.205   2.936  1.00  0.00     0.007 A 
HETATM   10  C   UNL     1      61.689  10.119   1.620  1.00  0.00     0.001 A 
HETATM   11  C   UNL     1      61.866   8.945   0.888  1.00  0.00     0.000 A 
HETATM   12  C   UNL     1      62.513   7.850   1.470  1.00  0.00     0.001 A 
HETATM   13  C   UNL     1      62.987   7.931   2.785  1.00  0.00     0.007 A 
ENDBRANCH   7   8
ENDBRANCH   1   7
BRANCH   1  14
HETATM   14  N   UNL     1      63.096   7.398   6.610  1.00  0.00    -0.066 N 
HETATM   15  H   UNL     1      63.729   7.096   7.351  1.00  0.00     0.275 HD
HETATM   16  H   UNL     1      62.506   6.615   6.327  1.00  0.00     0.275 HD
HETATM   17  H   UNL     1      62.509   8.158   6.952  1.00  0.00     0.275 HD
ENDBRANCH   1  14
TORSDOF 6
ENDMDL
MODEL 4
REMARK VINA RESULT:      -4.5      1.806      2.393
REMARK  6 active torsions:
REMARK  status: ('A' for Active; 'I' for Inactive)
REMARK    1  A    between atoms: C_1  and  O_6 
REMARK    2  A    between atoms: C_1  and  C_2 
REMARK    3  A    between atoms: C_2  and  C_4 
REMARK    4  A    between atoms: C_2  and  N_5 
REMARK    5  A    between atoms: C_4  and  C_7 
REMARK    6  A    between atoms: O_6  and  C_8 
ROOT
HETATM    1  C   UNL     1      63.022   8.635   5.107  1.00  0.00     0.286 C 
ENDROOT
BRANCH   1   2
HETATM    2  C   UNL     1      62.716  10.123   5.104  1.00  0.00     0.289 C 
HETATM    3  O   UNL     1      63.355  10.869   5.829  1.00  0.00    -0.263 OA
BRANCH   2   4
HETATM    4  O   UNL     1      61.738  10.610   4.292  1.00  0.00    -0.320 OA
BRANCH   4   5
HETATM    5  C   UNL     1      61.920  11.309   3.108  1.00  0.00     0.174 C 
HETATM    6  C   UNL     1      61.886  10.408   1.871  1.00  0.00     0.034 C 
ENDBRANCH   4   5
ENDBRANCH   2   4
ENDBRANCH   1   2
BRANCH   1   7
HETATM    7  C   UNL     1      64.333   8.344   4.354  1.00  0.00     0.081 C 
BRANCH   7   8
HETATM    8  C   UNL     1      65.372   7.697   5.244  1.00  0.00    -0.056 A 
HETATM    9  C   UNL     1      66.732   7.720   4.884  1.00  0.00     0.007 A 
HETATM   10  C   UNL     1      67.695   7.137   5.717  1.00  0.00     0.001 A 
HETATM   11  C   UNL     1      67.311   6.525   6.910  1.00  0.00     0.000 A 
HETATM   12  C   UNL     1      65.962   6.493   7.277  1.00  0.00     0.001 A 
HETATM   13  C   UNL     1      64.995   7.078   6.450  1.00  0.00     0.007 A 
ENDBRANCH   7   8
ENDBRANCH   1   7
BRANCH   1  14
HETATM   14  N   UNL     1      61.913   7.879   4.528  1.00  0.00    -0.066 N 
HETATM   15  H   UNL     1      62.140   6.885   4.534  1.00  0.00     0.275 HD
HETATM   16  H   UNL     1      61.755   8.187   3.569  1.00  0.00     0.275 HD
HETATM   17  H   UNL     1      61.069   8.039   5.080  1.00  0.00     0.275 HD
ENDBRANCH   1  14
TORSDOF 6
ENDMDL
MODEL 5
REMARK VINA RESULT:      -4.5      3.027      5.548
REMARK  6 active torsions:
REMARK  status: ('A' for Active; 'I' for Inactive)
REMARK    1  A    between atoms: C_1  and  O_6 
REMARK    2  A    between atoms: C_1  and  C_2 
REMARK    3  A    between atoms: C_2  and  C_4 
REMARK    4  A    between atoms: C_2  and  N_5 
REMARK    5  A    between atoms: C_4  and  C_7 
REMARK    6  A    between atoms: O_6  and  C_8 
ROOT
HETATM    1  C   UNL     1      64.177   7.920   5.409  1.00  0.00     0.286 C 
ENDROOT
BRANCH   1   2
HETATM    2  C   UNL     1      64.302   6.777   6.401  1.00  0.00     0.289 C 
HETATM    3  O   UNL     1      63.832   5.686   6.123  1.00  0.00    -0.263 OA
BRANCH   2   4
HETATM    4  O   UNL     1      64.940   6.979   7.587  1.00  0.00    -0.320 OA
BRANCH   4   5
HETATM    5  C   UNL     1      66.297   6.826   7.831  1.00  0.00     0.174 C 
HETATM    6  C   UNL     1      66.941   5.740   6.966  1.00  0.00     0.034 C 
ENDBRANCH   4   5
ENDBRANCH   2   4
ENDBRANCH   1   2
BRANCH   1   7
HETATM    7  C   UNL     1      63.045   7.648   4.400  1.00  0.00     0.081 C 
BRANCH   7   8
HETATM    8  C   UNL     1      62.621   8.901   3.665  1.00  0.00    -0.056 A 
HETATM    9  C   UNL     1      62.435   8.880   2.271  1.00  0.00     0.007 A 
HETATM   10  C   UNL     1      62.025  10.035   1.594  1.00  0.00     0.001 A 
HETATM   11  C   UNL     1      61.801  11.218   2.298  1.00  0.00     0.000 A 
HETATM   12  C   UNL     1      61.985  11.251   3.684  1.00  0.00     0.001 A 
HETATM   13  C   UNL     1      62.391  10.098   4.367  1.00  0.00     0.007 A 
ENDBRANCH   7   8
ENDBRANCH   1   7
BRANCH   1  14
HETATM   14  N   UNL     1      65.445   8.145   4.718  1.00  0.00    -0.066 N 
HETATM   15  H   UNL     1      65.481   7.567   3.878  1.00  0.00     0.275 HD
HETATM   16  H   UNL     1      66.218   7.897   5.335  1.00  0.00     0.275 HD
HETATM   17  H   UNL     1      65.520   9.129   4.458  1.00  0.00     0.275 HD
ENDBRANCH   1  14
TORSDOF 6
ENDMDL
MODEL 6
REMARK VINA RESULT:      -4.3      3.147      4.133
REMARK  6 active torsions:
REMARK  status: ('A' for Active; 'I' for Inactive)
REMARK    1  A    between atoms: C_1  and  O_6 
REMARK    2  A    between atoms: C_1  and  C_2 
REMARK    3  A    between atoms: C_2  and  C_4 
REMARK    4  A    between atoms: C_2  and  N_5 
REMARK    5  A    between atoms: C_4  and  C_7 
REMARK    6  A    between atoms: O_6  and  C_8 
ROOT
HETATM    1  C   UNL     1      65.045   7.274   5.112  1.00  0.00     0.286 C 
ENDROOT
BRANCH   1   2
HETATM    2  C   UNL     1      64.537   8.704   5.052  1.00  0.00     0.289 C 
HETATM    3  O   UNL     1      64.993   9.537   5.819  1.00  0.00    -0.263 OA
BRANCH   2   4
HETATM    4  O   UNL     1      63.583   9.044   4.142  1.00  0.00    -0.320 OA
BRANCH   4   5
HETATM    5  C   UNL     1      62.348   9.616   4.413  1.00  0.00     0.174 C 
HETATM    6  C   UNL     1      61.969  10.718   3.421  1.00  0.00     0.034 C 
ENDBRANCH   4   5
ENDBRANCH   2   4
ENDBRANCH   1   2
BRANCH   1   7
HETATM    7  C   UNL     1      66.580   7.244   5.239  1.00  0.00     0.081 C 
BRANCH   7   8
HETATM    8  C   UNL     1      67.035   6.564   6.512  1.00  0.00    -0.056 A 
HETATM    9  C   UNL     1      66.816   7.172   7.761  1.00  0.00     0.007 A 
HETATM   10  C   UNL     1      67.221   6.534   8.940  1.00  0.00     0.001 A 
HETATM   11  C   UNL     1      67.849   5.289   8.883  1.00  0.00     0.000 A 
HETATM   12  C   UNL     1      68.074   4.676   7.646  1.00  0.00     0.001 A 
HETATM   13  C   UNL     1      67.668   5.307   6.465  1.00  0.00     0.007 A 
ENDBRANCH   7   8
ENDBRANCH   1   7
BRANCH   1  14
HETATM   14  N   UNL     1      64.606   6.520   3.940  1.00  0.00    -0.066 N 
HETATM   15  H   UNL     1      65.112   5.636   3.896  1.00  0.00     0.275 HD
HETATM   16  H   UNL     1      64.794   7.062   3.097  1.00  0.00     0.275 HD
HETATM   17  H   UNL     1      63.605   6.337   4.010  1.00  0.00     0.275 HD
ENDBRANCH   1  14
TORSDOF 6
ENDMDL
MODEL 7
REMARK VINA RESULT:      -4.2      3.096      5.385
REMARK  6 active torsions:
REMARK  status: ('A' for Active; 'I' for Inactive)
REMARK    1  A    between atoms: C_1  and  O_6 
REMARK    2  A    between atoms: C_1  and  C_2 
REMARK    3  A    between atoms: C_2  and  C_4 
REMARK    4  A    between atoms: C_2  and  N_5 
REMARK    5  A    between atoms: C_4  and  C_7 
REMARK    6  A    between atoms: O_6  and  C_8 
ROOT
HETATM    1  C   UNL     1      64.212   7.436   4.652  1.00  0.00     0.286 C 
ENDROOT
BRANCH   1   2
HETATM    2  C   UNL     1      63.871   6.728   5.952  1.00  0.00     0.289 C 
HETATM    3  O   UNL     1      63.826   7.369   6.991  1.00  0.00    -0.263 OA
BRANCH   2   4
HETATM    4  O   UNL     1      63.614   5.392   5.946  1.00  0.00    -0.320 OA
BRANCH   4   5
HETATM    5  C   UNL     1      64.238   4.427   6.724  1.00  0.00     0.174 C 
HETATM    6  C   UNL     1      65.454   3.801   6.037  1.00  0.00     0.034 C 
ENDBRANCH   4   5
ENDBRANCH   2   4
ENDBRANCH   1   2
BRANCH   1   7
HETATM    7  C   UNL     1      63.008   7.425   3.691  1.00  0.00     0.081 C 
BRANCH   7   8
HETATM    8  C   UNL     1      62.561   8.823   3.320  1.00  0.00    -0.056 A 
HETATM    9  C   UNL     1      62.470   9.826   4.302  1.00  0.00     0.007 A 
HETATM   10  C   UNL     1      62.074  11.123   3.955  1.00  0.00     0.001 A 
HETATM   11  C   UNL     1      61.763  11.430   2.630  1.00  0.00     0.000 A 
HETATM   12  C   UNL     1      61.848  10.440   1.645  1.00  0.00     0.001 A 
HETATM   13  C   UNL     1      62.247   9.142   1.986  1.00  0.00     0.007 A 
ENDBRANCH   7   8
ENDBRANCH   1   7
BRANCH   1  14
HETATM   14  N   UNL     1      65.382   6.825   4.024  1.00  0.00    -0.066 N 
HETATM   15  H   UNL     1      65.096   5.990   3.513  1.00  0.00     0.275 HD
HETATM   16  H   UNL     1      66.059   6.570   4.742  1.00  0.00     0.275 HD
HETATM   17  H   UNL     1      65.806   7.491   3.379  1.00  0.00     0.275 HD
ENDBRANCH   1  14
TORSDOF 6
ENDMDL
MODEL 8
REMARK VINA RESULT:      -4.1      3.265      5.203
REMARK  6 active torsions:
REMARK  status: ('A' for Active; 'I' for Inactive)
REMARK    1  A    between atoms: C_1  and  O_6 
REMARK    2  A    between atoms: C_1  and  C_2 
REMARK    3  A    between atoms: C_2  and  C_4 
REMARK    4  A    between atoms: C_2  and  N_5 
REMARK    5  A    between atoms: C_4  and  C_7 
REMARK    6  A    between atoms: O_6  and  C_8 
ROOT
HETATM    1  C   UNL     1      62.631   7.519   5.664  1.00  0.00     0.286 C 
ENDROOT
BRANCH   1   2
HETATM    2  C   UNL     1      61.699   6.330   5.824  1.00  0.00     0.289 C 
HETATM    3  O   UNL     1      62.107   5.316   6.368  1.00  0.00    -0.263 OA
BRANCH   2   4
HETATM    4  O   UNL     1      60.420   6.408   5.365  1.00  0.00    -0.320 OA
BRANCH   4   5
HETATM    5  C   UNL     1      59.356   5.601   5.741  1.00  0.00     0.174 C 
HETATM    6  C   UNL     1      58.668   6.079   7.022  1.00  0.00     0.034 C 
ENDBRANCH   4   5
ENDBRANCH   2   4
ENDBRANCH   1   2
BRANCH   1   7
HETATM    7  C   UNL     1      63.157   7.611   4.219  1.00  0.00     0.081 C 
BRANCH   7   8
HETATM    8  C   UNL     1      62.664   8.853   3.509  1.00  0.00    -0.056 A 
HETATM    9  C   UNL     1      62.423   8.833   2.123  1.00  0.00     0.007 A 
HETATM   10  C   UNL     1      61.950   9.977   1.470  1.00  0.00     0.001 A 
HETATM   11  C   UNL     1      61.717  11.149   2.191  1.00  0.00     0.000 A 
HETATM   12  C   UNL     1      61.956  11.182   3.568  1.00  0.00     0.001 A 
HETATM   13  C   UNL     1      62.425  10.040   4.227  1.00  0.00     0.007 A 
ENDBRANCH   7   8
ENDBRANCH   1   7
BRANCH   1  14
HETATM   14  N   UNL     1      63.737   7.439   6.614  1.00  0.00    -0.066 N 
HETATM   15  H   UNL     1      63.478   7.913   7.479  1.00  0.00     0.275 HD
HETATM   16  H   UNL     1      64.562   7.886   6.216  1.00  0.00     0.275 HD
HETATM   17  H   UNL     1      63.944   6.460   6.813  1.00  0.00     0.275 HD
ENDBRANCH   1  14
TORSDOF 6
ENDMDL
MODEL 9
REMARK VINA RESULT:      -4.1      2.739      4.882
REMARK  6 active torsions:
REMARK  status: ('A' for Active; 'I' for Inactive)
REMARK    1  A    between atoms: C_1  and  O_6 
REMARK    2  A    between atoms: C_1  and  C_2 
REMARK    3  A    between atoms: C_2  and  C_4 
REMARK    4  A    between atoms: C_2  and  N_5 
REMARK    5  A    between atoms: C_4  and  C_7 
REMARK    6  A    between atoms: O_6  and  C_8 
ROOT
HETATM    1  C   UNL     1      62.435   9.566   4.575  1.00  0.00     0.286 C 
ENDROOT
BRANCH   1   2
HETATM    2  C   UNL     1      63.499   8.978   5.486  1.00  0.00     0.289 C 
HETATM    3  O   UNL     1      64.639   9.414   5.438  1.00  0.00    -0.263 OA
BRANCH   2   4
HETATM    4  O   UNL     1      63.172   7.976   6.347  1.00  0.00    -0.320 OA
BRANCH   4   5
HETATM    5  C   UNL     1      62.800   6.683   6.007  1.00  0.00     0.174 C 
HETATM    6  C   UNL     1      61.390   6.324   6.481  1.00  0.00     0.034 C 
ENDBRANCH   4   5
ENDBRANCH   2   4
ENDBRANCH   1   2
BRANCH   1   7
HETATM    7  C   UNL     1      62.652   9.117   3.118  1.00  0.00     0.081 C 
BRANCH   7   8
HETATM    8  C   UNL     1      61.389   8.560   2.498  1.00  0.00    -0.056 A 
HETATM    9  C   UNL     1      60.419   7.933   3.300  1.00  0.00     0.007 A 
HETATM   10  C   UNL     1      59.242   7.433   2.728  1.00  0.00     0.001 A 
HETATM   11  C   UNL     1      59.025   7.551   1.355  1.00  0.00     0.000 A 
HETATM   12  C   UNL     1      59.984   8.170   0.547  1.00  0.00     0.001 A 
HETATM   13  C   UNL     1      61.161   8.675   1.114  1.00  0.00     0.007 A 
ENDBRANCH   7   8
ENDBRANCH   1   7
BRANCH   1  14
HETATM   14  N   UNL     1      62.422  11.024   4.672  1.00  0.00    -0.066 N 
HETATM   15  H   UNL     1      62.256  11.299   5.640  1.00  0.00     0.275 HD
HETATM   16  H   UNL     1      61.681  11.398   4.080  1.00  0.00     0.275 HD
HETATM   17  H   UNL     1      63.322  11.393   4.363  1.00  0.00     0.275 HD
ENDBRANCH   1  14
TORSDOF 6
ENDMDL
