MODEL 1
REMARK VINA RESULT:      -4.3      0.000      0.000
REMARK  1 active torsions:
REMARK  status: ('A' for Active; 'I' for Inactive)
REMARK    1  A    between atoms: C_1  and  O_4 
ROOT
HETATM    1  C   UNL     1      62.207  10.177   3.623  1.00  0.00     0.109 A 
HETATM    2  C   UNL     1      62.531   8.857   3.951  1.00  0.00     0.068 A 
HETATM    3  C   UNL     1      61.966  10.516   2.290  1.00  0.00     0.068 A 
HETATM    4 CL   UNL     1      62.833   8.411   5.591  1.00  0.00    -0.081 Cl
HETATM    5 CL   UNL     1      61.561  12.130   1.830  1.00  0.00    -0.081 Cl
HETATM    6  C   UNL     1      62.373   8.223   1.625  1.00  0.00     0.003 A 
HETATM    7  C   UNL     1      62.616   7.880   2.956  1.00  0.00     0.027 A 
HETATM    8  C   UNL     1      62.048   9.540   1.294  1.00  0.00     0.027 A 
ENDROOT
BRANCH   1   9
HETATM    9  O   UNL     1      62.122  11.142   4.596  1.00  0.00    -0.357 OA
HETATM   10  H   UNL     1      61.858  12.012   4.372  1.00  0.00     0.217 HD
ENDBRANCH   1   9
TORSDOF 1
ENDMDL
MODEL 2
REMARK VINA RESULT:      -4.3      1.800      2.929
REMARK  1 active torsions:
REMARK  status: ('A' for Active; 'I' for Inactive)
REMARK    1  A    between atoms: C_1  and  O_4 
ROOT
HETATM    1  C   UNL     1      62.173  10.050   3.527  1.00  0.00     0.109 A 
HETATM    2  C   UNL     1      62.244   8.998   2.607  1.00  0.00     0.068 A 
HETATM    3  C   UNL     1      62.940   9.998   4.694  1.00  0.00     0.068 A 
HETATM    4 CL   UNL     1      61.308   9.039   1.157  1.00  0.00    -0.081 Cl
HETATM    5 CL   UNL     1      62.891  11.267   5.861  1.00  0.00    -0.081 Cl
HETATM    6  C   UNL     1      63.838   7.853   4.015  1.00  0.00     0.003 A 
HETATM    7  C   UNL     1      63.073   7.901   2.849  1.00  0.00     0.027 A 
HETATM    8  C   UNL     1      63.771   8.901   4.935  1.00  0.00     0.027 A 
ENDROOT
BRANCH   1   9
HETATM    9  O   UNL     1      61.361  11.132   3.296  1.00  0.00    -0.357 OA
HETATM   10  H   UNL     1      60.790  11.140   2.553  1.00  0.00     0.217 HD
ENDBRANCH   1   9
TORSDOF 1
ENDMDL
MODEL 3
REMARK VINA RESULT:      -4.3      1.802      2.247
REMARK  1 active torsions:
REMARK  status: ('A' for Active; 'I' for Inactive)
REMARK    1  A    between atoms: C_1  and  O_4 
ROOT
HETATM    1  C   UNL     1      62.175  10.057   3.535  1.00  0.00     0.109 A 
HETATM    2  C   UNL     1      62.948   9.993   4.699  1.00  0.00     0.068 A 
HETATM    3  C   UNL     1      62.236   9.013   2.609  1.00  0.00     0.068 A 
HETATM    4 CL   UNL     1      62.891  11.269   5.860  1.00  0.00    -0.081 Cl
HETATM    5 CL   UNL     1      61.304   9.041   1.158  1.00  0.00    -0.081 Cl
HETATM    6  C   UNL     1      63.835   7.853   4.012  1.00  0.00     0.003 A 
HETATM    7  C   UNL     1      63.778   8.895   4.938  1.00  0.00     0.027 A 
HETATM    8  C   UNL     1      63.064   7.913   2.849  1.00  0.00     0.027 A 
ENDROOT
BRANCH   1   9
HETATM    9  O   UNL     1      61.358  11.133   3.293  1.00  0.00    -0.357 OA
HETATM   10  H   UNL     1      61.062  11.311   2.423  1.00  0.00     0.217 HD
ENDBRANCH   1   9
TORSDOF 1
ENDMDL
MODEL 4
REMARK VINA RESULT:      -4.0      2.047      2.723
REMARK  1 active torsions:
REMARK  status: ('A' for Active; 'I' for Inactive)
REMARK    1  A    between atoms: C_1  and  O_4 
ROOT
HETATM    1  C   UNL     1      62.808   9.220   3.868  1.00  0.00     0.109 A 
HETATM    2  C   UNL     1      62.577   8.734   2.578  1.00  0.00     0.068 A 
HETATM    3  C   UNL     1      62.488  10.546   4.173  1.00  0.00     0.068 A 
HETATM    4 CL   UNL     1      62.963   7.100   2.176  1.00  0.00    -0.081 Cl
HETATM    5 CL   UNL     1      62.752  11.197   5.748  1.00  0.00    -0.081 Cl
HETATM    6  C   UNL     1      61.710  10.886   1.904  1.00  0.00     0.003 A 
HETATM    7  C   UNL     1      62.031   9.563   1.596  1.00  0.00     0.027 A 
HETATM    8  C   UNL     1      61.939  11.375   3.191  1.00  0.00     0.027 A 
ENDROOT
BRANCH   1   9
HETATM    9  O   UNL     1      63.346   8.411   4.838  1.00  0.00    -0.357 OA
HETATM   10  H   UNL     1      64.042   7.822   4.625  1.00  0.00     0.217 HD
ENDBRANCH   1   9
TORSDOF 1
ENDMDL
MODEL 5
REMARK VINA RESULT:      -4.0      2.021      2.873
REMARK  1 active torsions:
REMARK  status: ('A' for Active; 'I' for Inactive)
REMARK    1  A    between atoms: C_1  and  O_4 
ROOT
HETATM    1  C   UNL     1      62.964   9.048   3.863  1.00  0.00     0.109 A 
HETATM    2  C   UNL     1      62.542  10.364   4.078  1.00  0.00     0.068 A 
HETATM    3  C   UNL     1      62.768   8.457   2.613  1.00  0.00     0.068 A 
HETATM    4 CL   UNL     1      62.773  11.118   5.613  1.00  0.00    -0.081 Cl
HETATM    5 CL   UNL     1      63.270   6.837   2.294  1.00  0.00    -0.081 Cl
HETATM    6  C   UNL     1      61.735  10.494   1.804  1.00  0.00     0.003 A 
HETATM    7  C   UNL     1      61.928  11.087   3.053  1.00  0.00     0.027 A 
HETATM    8  C   UNL     1      62.156   9.180   1.586  1.00  0.00     0.027 A 
ENDROOT
BRANCH   1   9
HETATM    9  O   UNL     1      63.568   8.332   4.866  1.00  0.00    -0.357 OA
HETATM   10  H   UNL     1      64.184   7.658   4.657  1.00  0.00     0.217 HD
ENDBRANCH   1   9
TORSDOF 1
ENDMDL
MODEL 6
REMARK VINA RESULT:      -3.9      2.058      3.926
REMARK  1 active torsions:
REMARK  status: ('A' for Active; 'I' for Inactive)
REMARK    1  A    between atoms: C_1  and  O_4 
ROOT
HETATM    1  C   UNL     1      62.978   8.654   3.347  1.00  0.00     0.109 A 
HETATM    2  C   UNL     1      62.267   9.582   2.578  1.00  0.00     0.068 A 
HETATM    3  C   UNL     1      63.333   8.976   4.659  1.00  0.00     0.068 A 
HETATM    4 CL   UNL     1      61.815   9.209   0.955  1.00  0.00    -0.081 Cl
HETATM    5 CL   UNL     1      64.209   7.869   5.652  1.00  0.00    -0.081 Cl
HETATM    6  C   UNL     1      62.268  11.139   4.426  1.00  0.00     0.003 A 
HETATM    7  C   UNL     1      61.913  10.822   3.113  1.00  0.00     0.027 A 
HETATM    8  C   UNL     1      62.977  10.215   5.197  1.00  0.00     0.027 A 
ENDROOT
BRANCH   1   9
HETATM    9  O   UNL     1      63.330   7.434   2.827  1.00  0.00    -0.357 OA
HETATM   10  H   UNL     1      63.070   7.201   1.958  1.00  0.00     0.217 HD
ENDBRANCH   1   9
TORSDOF 1
ENDMDL
MODEL 7
REMARK VINA RESULT:      -3.9      2.361      3.347
REMARK  1 active torsions:
REMARK  status: ('A' for Active; 'I' for Inactive)
REMARK    1  A    between atoms: C_1  and  O_4 
ROOT
HETATM    1  C   UNL     1      63.895   9.076   4.787  1.00  0.00     0.109 A 
HETATM    2  C   UNL     1      62.885  10.044   4.756  1.00  0.00     0.068 A 
HETATM    3  C   UNL     1      63.859   8.014   3.880  1.00  0.00     0.068 A 
HETATM    4 CL   UNL     1      62.906  11.366   5.864  1.00  0.00    -0.081 Cl
HETATM    5 CL   UNL     1      65.079   6.793   3.874  1.00  0.00    -0.081 Cl
HETATM    6  C   UNL     1      61.814   8.891   2.922  1.00  0.00     0.003 A 
HETATM    7  C   UNL     1      61.846   9.953   3.828  1.00  0.00     0.027 A 
HETATM    8  C   UNL     1      62.821   7.924   2.949  1.00  0.00     0.027 A 
ENDROOT
BRANCH   1   9
HETATM    9  O   UNL     1      64.919   9.158   5.697  1.00  0.00    -0.357 OA
HETATM   10  H   UNL     1      65.192   8.395   6.167  1.00  0.00     0.217 HD
ENDBRANCH   1   9
TORSDOF 1
ENDMDL
MODEL 8
REMARK VINA RESULT:      -3.9      2.063      2.709
REMARK  1 active torsions:
REMARK  status: ('A' for Active; 'I' for Inactive)
REMARK    1  A    between atoms: C_1  and  O_4 
ROOT
HETATM    1  C   UNL     1      62.963   8.608   3.270  1.00  0.00     0.109 A 
HETATM    2  C   UNL     1      63.272   8.961   4.588  1.00  0.00     0.068 A 
HETATM    3  C   UNL     1      62.266   9.510   2.462  1.00  0.00     0.068 A 
HETATM    4 CL   UNL     1      64.133   7.866   5.607  1.00  0.00    -0.081 Cl
HETATM    5 CL   UNL     1      61.859   9.127   0.829  1.00  0.00    -0.081 Cl
HETATM    6  C   UNL     1      62.195  11.102   4.286  1.00  0.00     0.003 A 
HETATM    7  C   UNL     1      62.889  10.203   5.097  1.00  0.00     0.027 A 
HETATM    8  C   UNL     1      61.884  10.754   2.970  1.00  0.00     0.027 A 
ENDROOT
BRANCH   1   9
HETATM    9  O   UNL     1      63.336   7.389   2.763  1.00  0.00    -0.357 OA
HETATM   10  H   UNL     1      62.705   6.847   2.331  1.00  0.00     0.217 HD
ENDBRANCH   1   9
TORSDOF 1
ENDMDL
MODEL 9
REMARK VINA RESULT:      -3.8      2.363      2.776
REMARK  1 active torsions:
REMARK  status: ('A' for Active; 'I' for Inactive)
REMARK    1  A    between atoms: C_1  and  O_4 
ROOT
HETATM    1  C   UNL     1      64.145   9.219   5.021  1.00  0.00     0.109 A 
HETATM    2  C   UNL     1      65.067   8.169   5.087  1.00  0.00     0.068 A 
HETATM    3  C   UNL     1      63.115   9.172   4.078  1.00  0.00     0.068 A 
HETATM    4 CL   UNL     1      66.349   8.202   6.242  1.00  0.00    -0.081 Cl
HETATM    5 CL   UNL     1      61.950  10.439   3.954  1.00  0.00    -0.081 Cl
HETATM    6  C   UNL     1      63.932   7.037   3.279  1.00  0.00     0.003 A 
HETATM    7  C   UNL     1      64.964   7.080   4.218  1.00  0.00     0.027 A 
HETATM    8  C   UNL     1      63.009   8.082   3.211  1.00  0.00     0.027 A 
ENDROOT
BRANCH   1   9
HETATM    9  O   UNL     1      64.240  10.293   5.870  1.00  0.00    -0.357 OA
HETATM   10  H   UNL     1      63.485  10.590   6.337  1.00  0.00     0.217 HD
ENDBRANCH   1   9
TORSDOF 1
ENDMDL
