MODEL 1
REMARK VINA RESULT:      -5.2      0.000      0.000
REMARK  2 active torsions:
REMARK  status: ('A' for Active; 'I' for Inactive)
REMARK    1  A    between atoms: C_1  and  C_2 
REMARK    2  A    between atoms: C_3  and  O_11 
ROOT
HETATM    1  C   UNL     1      63.369   9.528   4.764  1.00  0.00     0.075 A 
HETATM    2  C   UNL     1      64.523   8.808   5.114  1.00  0.00     0.085 A 
HETATM    3  C   UNL     1      62.548   9.042   3.717  1.00  0.00     0.045 A 
HETATM    4  C   UNL     1      64.811   7.622   4.405  1.00  0.00     0.039 A 
HETATM    5  C   UNL     1      62.858   7.868   3.040  1.00  0.00     0.035 A 
HETATM    6  C   UNL     1      63.994   7.149   3.379  1.00  0.00     0.026 A 
HETATM    7 CL   UNL     1      61.836   7.307   1.776  1.00  0.00    -0.084 Cl
ENDROOT
BRANCH   1   8
HETATM    8  C   UNL     1      62.924  10.811   5.364  1.00  0.00     0.212 C 
HETATM    9  O   UNL     1      63.236  11.295   6.432  1.00  0.00    -0.644 OA
HETATM   10  O   UNL     1      62.104  11.479   4.527  1.00  0.00    -0.644 OA
ENDBRANCH   1   8
BRANCH   2  11
HETATM   11  O   UNL     1      65.472   9.009   6.073  1.00  0.00    -0.355 OA
HETATM   12  C   UNL     1      66.479   8.055   6.345  1.00  0.00     0.210 C 
ENDBRANCH   2  11
TORSDOF 2
ENDMDL
MODEL 2
REMARK VINA RESULT:      -4.8      2.413      3.306
REMARK  2 active torsions:
REMARK  status: ('A' for Active; 'I' for Inactive)
REMARK    1  A    between atoms: C_1  and  C_2 
REMARK    2  A    between atoms: C_3  and  O_11 
ROOT
HETATM    1  C   UNL     1      62.844   9.041   3.967  1.00  0.00     0.075 A 
HETATM    2  C   UNL     1      62.828   8.008   3.015  1.00  0.00     0.085 A 
HETATM    3  C   UNL     1      62.422  10.337   3.582  1.00  0.00     0.045 A 
HETATM    4  C   UNL     1      62.384   8.311   1.710  1.00  0.00     0.039 A 
HETATM    5  C   UNL     1      61.986  10.601   2.288  1.00  0.00     0.035 A 
HETATM    6  C   UNL     1      61.965   9.589   1.342  1.00  0.00     0.026 A 
HETATM    7 CL   UNL     1      61.478  12.187   1.858  1.00  0.00    -0.084 Cl
ENDROOT
BRANCH   1   8
HETATM    8  C   UNL     1      63.313   8.927   5.372  1.00  0.00     0.212 C 
HETATM    9  O   UNL     1      62.872   8.232   6.262  1.00  0.00    -0.644 OA
HETATM   10  O   UNL     1      64.401   9.697   5.583  1.00  0.00    -0.644 OA
ENDBRANCH   1   8
BRANCH   2  11
HETATM   11  O   UNL     1      63.145   6.685   3.094  1.00  0.00    -0.355 OA
HETATM   12  C   UNL     1      64.482   6.236   3.179  1.00  0.00     0.210 C 
ENDBRANCH   2  11
TORSDOF 2
ENDMDL
MODEL 3
REMARK VINA RESULT:      -4.7      1.379      1.741
REMARK  2 active torsions:
REMARK  status: ('A' for Active; 'I' for Inactive)
REMARK    1  A    between atoms: C_1  and  C_2 
REMARK    2  A    between atoms: C_3  and  O_11 
ROOT
HETATM    1  C   UNL     1      62.432   9.776   3.325  1.00  0.00     0.075 A 
HETATM    2  C   UNL     1      63.274   8.936   4.072  1.00  0.00     0.085 A 
HETATM    3  C   UNL     1      61.871   9.290   2.119  1.00  0.00     0.045 A 
HETATM    4  C   UNL     1      63.521   7.635   3.586  1.00  0.00     0.039 A 
HETATM    5  C   UNL     1      62.131   8.000   1.669  1.00  0.00     0.035 A 
HETATM    6  C   UNL     1      62.959   7.163   2.400  1.00  0.00     0.026 A 
HETATM    7 CL   UNL     1      61.429   7.442   0.202  1.00  0.00    -0.084 Cl
ENDROOT
BRANCH   1   8
HETATM    8  C   UNL     1      62.089  11.184   3.652  1.00  0.00     0.212 C 
HETATM    9  O   UNL     1      62.001  11.707   4.743  1.00  0.00    -0.644 OA
HETATM   10  O   UNL     1      61.913  11.912   2.530  1.00  0.00    -0.644 OA
ENDBRANCH   1   8
BRANCH   2  11
HETATM   11  O   UNL     1      63.926   9.112   5.256  1.00  0.00    -0.355 OA
HETATM   12  C   UNL     1      65.112   8.411   5.574  1.00  0.00     0.210 C 
ENDBRANCH   2  11
TORSDOF 2
ENDMDL
MODEL 4
REMARK VINA RESULT:      -4.6      2.182      3.497
REMARK  2 active torsions:
REMARK  status: ('A' for Active; 'I' for Inactive)
REMARK    1  A    between atoms: C_1  and  C_2 
REMARK    2  A    between atoms: C_3  and  O_11 
ROOT
HETATM    1  C   UNL     1      63.250   9.362   4.373  1.00  0.00     0.075 A 
HETATM    2  C   UNL     1      62.778   8.583   3.304  1.00  0.00     0.085 A 
HETATM    3  C   UNL     1      64.364   8.904   5.118  1.00  0.00     0.045 A 
HETATM    4  C   UNL     1      63.443   7.372   3.016  1.00  0.00     0.039 A 
HETATM    5  C   UNL     1      65.000   7.708   4.806  1.00  0.00     0.035 A 
HETATM    6  C   UNL     1      64.543   6.932   3.752  1.00  0.00     0.026 A 
HETATM    7 CL   UNL     1      66.352   7.184   5.730  1.00  0.00    -0.084 Cl
ENDROOT
BRANCH   1   8
HETATM    8  C   UNL     1      62.660  10.639   4.851  1.00  0.00     0.212 C 
HETATM    9  O   UNL     1      61.867  11.363   4.287  1.00  0.00    -0.644 OA
HETATM   10  O   UNL     1      63.080  10.930   6.099  1.00  0.00    -0.644 OA
ENDBRANCH   1   8
BRANCH   2  11
HETATM   11  O   UNL     1      61.765   8.771   2.411  1.00  0.00    -0.355 OA
HETATM   12  C   UNL     1      61.980   9.355   1.142  1.00  0.00     0.210 C 
ENDBRANCH   2  11
TORSDOF 2
ENDMDL
MODEL 5
REMARK VINA RESULT:      -4.6      1.832      3.517
REMARK  2 active torsions:
REMARK  status: ('A' for Active; 'I' for Inactive)
REMARK    1  A    between atoms: C_1  and  C_2 
REMARK    2  A    between atoms: C_3  and  O_11 
ROOT
HETATM    1  C   UNL     1      63.007   8.677   3.840  1.00  0.00     0.075 A 
HETATM    2  C   UNL     1      62.341   9.606   3.024  1.00  0.00     0.085 A 
HETATM    3  C   UNL     1      63.358   7.415   3.301  1.00  0.00     0.045 A 
HETATM    4  C   UNL     1      62.053   9.238   1.692  1.00  0.00     0.039 A 
HETATM    5  C   UNL     1      63.062   7.085   1.983  1.00  0.00     0.035 A 
HETATM    6  C   UNL     1      62.406   7.995   1.169  1.00  0.00     0.026 A 
HETATM    7 CL   UNL     1      63.506   5.544   1.361  1.00  0.00    -0.084 Cl
ENDROOT
BRANCH   1   8
HETATM    8  C   UNL     1      63.359   8.866   5.271  1.00  0.00     0.212 C 
HETATM    9  O   UNL     1      62.849   8.359   6.248  1.00  0.00    -0.644 OA
HETATM   10  O   UNL     1      64.420   9.687   5.405  1.00  0.00    -0.644 OA
ENDBRANCH   1   8
BRANCH   2  11
HETATM   11  O   UNL     1      61.908  10.879   3.249  1.00  0.00    -0.355 OA
HETATM   12  C   UNL     1      61.750  11.816   2.203  1.00  0.00     0.210 C 
ENDBRANCH   2  11
TORSDOF 2
ENDMDL
MODEL 6
REMARK VINA RESULT:      -4.6      1.388      3.441
REMARK  2 active torsions:
REMARK  status: ('A' for Active; 'I' for Inactive)
REMARK    1  A    between atoms: C_1  and  C_2 
REMARK    2  A    between atoms: C_3  and  O_11 
ROOT
HETATM    1  C   UNL     1      65.205   8.082   5.052  1.00  0.00     0.075 A 
HETATM    2  C   UNL     1      64.214   9.077   5.001  1.00  0.00     0.085 A 
HETATM    3  C   UNL     1      65.130   6.992   4.152  1.00  0.00     0.045 A 
HETATM    4  C   UNL     1      63.185   8.945   4.045  1.00  0.00     0.039 A 
HETATM    5  C   UNL     1      64.104   6.893   3.218  1.00  0.00     0.035 A 
HETATM    6  C   UNL     1      63.123   7.870   3.159  1.00  0.00     0.026 A 
HETATM    7 CL   UNL     1      64.048   5.556   2.139  1.00  0.00    -0.084 Cl
ENDROOT
BRANCH   1   8
HETATM    8  C   UNL     1      66.338   8.026   6.010  1.00  0.00     0.212 C 
HETATM    9  O   UNL     1      66.312   7.791   7.200  1.00  0.00    -0.644 OA
HETATM   10  O   UNL     1      67.514   8.231   5.382  1.00  0.00    -0.644 OA
ENDBRANCH   1   8
BRANCH   2  11
HETATM   11  O   UNL     1      64.038  10.230   5.706  1.00  0.00    -0.355 OA
HETATM   12  C   UNL     1      62.888  11.037   5.552  1.00  0.00     0.210 C 
ENDBRANCH   2  11
TORSDOF 2
ENDMDL
MODEL 7
REMARK VINA RESULT:      -4.3      1.559      2.190
REMARK  2 active torsions:
REMARK  status: ('A' for Active; 'I' for Inactive)
REMARK    1  A    between atoms: C_1  and  C_2 
REMARK    2  A    between atoms: C_3  and  O_11 
ROOT
HETATM    1  C   UNL     1      63.749   8.310   4.099  1.00  0.00     0.075 A 
HETATM    2  C   UNL     1      64.325   7.075   3.755  1.00  0.00     0.085 A 
HETATM    3  C   UNL     1      62.747   8.857   3.261  1.00  0.00     0.045 A 
HETATM    4  C   UNL     1      63.872   6.430   2.585  1.00  0.00     0.039 A 
HETATM    5  C   UNL     1      62.320   8.194   2.116  1.00  0.00     0.035 A 
HETATM    6  C   UNL     1      62.881   6.975   1.769  1.00  0.00     0.026 A 
HETATM    7 CL   UNL     1      61.098   8.888   1.124  1.00  0.00    -0.084 Cl
ENDROOT
BRANCH   1   8
HETATM    8  C   UNL     1      64.121   9.153   5.263  1.00  0.00     0.212 C 
HETATM    9  O   UNL     1      65.223   9.359   5.727  1.00  0.00    -0.644 OA
HETATM   10  O   UNL     1      63.038   9.765   5.783  1.00  0.00    -0.644 OA
ENDBRANCH   1   8
BRANCH   2  11
HETATM   11  O   UNL     1      65.270   6.304   4.364  1.00  0.00    -0.355 OA
HETATM   12  C   UNL     1      66.643   6.404   4.042  1.00  0.00     0.210 C 
ENDBRANCH   2  11
TORSDOF 2
ENDMDL
MODEL 8
REMARK VINA RESULT:      -4.1      2.867      3.703
REMARK  2 active torsions:
REMARK  status: ('A' for Active; 'I' for Inactive)
REMARK    1  A    between atoms: C_1  and  C_2 
REMARK    2  A    between atoms: C_3  and  O_11 
ROOT
HETATM    1  C   UNL     1      62.010   8.149   4.224  1.00  0.00     0.075 A 
HETATM    2  C   UNL     1      62.618   8.552   5.424  1.00  0.00     0.085 A 
HETATM    3  C   UNL     1      61.733   9.123   3.234  1.00  0.00     0.045 A 
HETATM    4  C   UNL     1      62.932   9.918   5.588  1.00  0.00     0.039 A 
HETATM    5  C   UNL     1      62.058  10.461   3.424  1.00  0.00     0.035 A 
HETATM    6  C   UNL     1      62.660  10.869   4.605  1.00  0.00     0.026 A 
HETATM    7 CL   UNL     1      61.709  11.615   2.198  1.00  0.00    -0.084 Cl
ENDROOT
BRANCH   1   8
HETATM    8  C   UNL     1      61.571   6.771   3.887  1.00  0.00     0.212 C 
HETATM    9  O   UNL     1      62.206   5.884   3.356  1.00  0.00    -0.644 OA
HETATM   10  O   UNL     1      60.307   6.550   4.301  1.00  0.00    -0.644 OA
ENDBRANCH   1   8
BRANCH   2  11
HETATM   11  O   UNL     1      63.020   7.857   6.526  1.00  0.00    -0.355 OA
HETATM   12  C   UNL     1      64.089   6.933   6.484  1.00  0.00     0.210 C 
ENDBRANCH   2  11
TORSDOF 2
ENDMDL
MODEL 9
REMARK VINA RESULT:      -4.1      2.645      3.556
REMARK  2 active torsions:
REMARK  status: ('A' for Active; 'I' for Inactive)
REMARK    1  A    between atoms: C_1  and  C_2 
REMARK    2  A    between atoms: C_3  and  O_11 
ROOT
HETATM    1  C   UNL     1      64.468   8.201   4.971  1.00  0.00     0.075 A 
HETATM    2  C   UNL     1      63.936   7.244   4.091  1.00  0.00     0.085 A 
HETATM    3  C   UNL     1      63.884   9.490   5.019  1.00  0.00     0.045 A 
HETATM    4  C   UNL     1      62.833   7.613   3.292  1.00  0.00     0.039 A 
HETATM    5  C   UNL     1      62.795   9.821   4.220  1.00  0.00     0.035 A 
HETATM    6  C   UNL     1      62.261   8.883   3.349  1.00  0.00     0.026 A 
HETATM    7 CL   UNL     1      62.110  11.396   4.307  1.00  0.00    -0.084 Cl
ENDROOT
BRANCH   1   8
HETATM    8  C   UNL     1      65.645   8.014   5.857  1.00  0.00     0.212 C 
HETATM    9  O   UNL     1      65.679   7.572   6.986  1.00  0.00    -0.644 OA
HETATM   10  O   UNL     1      66.786   8.364   5.228  1.00  0.00    -0.644 OA
ENDBRANCH   1   8
BRANCH   2  11
HETATM   11  O   UNL     1      64.262   5.943   3.847  1.00  0.00    -0.355 OA
HETATM   12  C   UNL     1      65.380   5.582   3.061  1.00  0.00     0.210 C 
ENDBRANCH   2  11
TORSDOF 2
ENDMDL
