MODEL 1
REMARK VINA RESULT:      -5.4      0.000      0.000
REMARK  3 active torsions:
REMARK  status: ('A' for Active; 'I' for Inactive)
REMARK    1  A    between atoms: C_1  and  O_3 
REMARK    2  A    between atoms: C_2  and  C_4 
REMARK    3  A    between atoms: O_3  and  C_6 
ROOT
HETATM    1  C   UNL     1      62.704   9.683   3.813  1.00  0.00     0.012 A 
HETATM    2  C   UNL     1      63.576   9.493   4.891  1.00  0.00     0.052 A 
HETATM    3  C   UNL     1      64.059   8.221   5.190  1.00  0.00     0.079 A 
HETATM    4  C   UNL     1      62.379   8.601   2.986  1.00  0.00     0.015 A 
HETATM    5  C   UNL     1      62.921   7.344   3.235  1.00  0.00     0.004 A 
HETATM    6  C   UNL     1      63.754   7.155   4.338  1.00  0.00     0.037 A 
ENDROOT
BRANCH   3   7
HETATM    7  O   UNL     1      64.833   7.888   6.261  1.00  0.00    -0.255 OA
BRANCH   7   8
HETATM    8  C   UNL     1      66.249   7.925   6.129  1.00  0.00     0.530 C 
HETATM    9  F   UNL     1      66.669   8.210   4.877  1.00  0.00    -0.144 F 
HETATM   10  F   UNL     1      66.771   6.740   6.506  1.00  0.00    -0.144 F 
HETATM   11  F   UNL     1      66.731   8.884   6.949  1.00  0.00    -0.144 F 
ENDBRANCH   7   8
ENDBRANCH   3   7
BRANCH   1  12
HETATM   12  C   UNL     1      62.069  11.009   3.541  1.00  0.00     0.155 C 
HETATM   13  O   UNL     1      61.826  11.775   4.471  1.00  0.00    -0.293 OA
HETATM   14  C   UNL     1      61.755  11.386   2.116  1.00  0.00     0.096 C 
ENDBRANCH   1  12
TORSDOF 3
ENDMDL
MODEL 2
REMARK VINA RESULT:      -5.0      1.677      2.417
REMARK  3 active torsions:
REMARK  status: ('A' for Active; 'I' for Inactive)
REMARK    1  A    between atoms: C_1  and  O_3 
REMARK    2  A    between atoms: C_2  and  C_4 
REMARK    3  A    between atoms: O_3  and  C_6 
ROOT
HETATM    1  C   UNL     1      62.030   9.250   3.207  1.00  0.00     0.012 A 
HETATM    2  C   UNL     1      62.746   8.465   4.118  1.00  0.00     0.052 A 
HETATM    3  C   UNL     1      63.360   9.052   5.223  1.00  0.00     0.079 A 
HETATM    4  C   UNL     1      61.865  10.618   3.451  1.00  0.00     0.015 A 
HETATM    5  C   UNL     1      62.410  11.194   4.594  1.00  0.00     0.004 A 
HETATM    6  C   UNL     1      63.160  10.413   5.473  1.00  0.00     0.037 A 
ENDROOT
BRANCH   3   7
HETATM    7  O   UNL     1      64.160   8.420   6.127  1.00  0.00    -0.255 OA
BRANCH   7   8
HETATM    8  C   UNL     1      65.480   8.052   5.744  1.00  0.00     0.530 C 
HETATM    9  F   UNL     1      65.792   8.396   4.475  1.00  0.00    -0.144 F 
HETATM   10  F   UNL     1      65.639   6.720   5.888  1.00  0.00    -0.144 F 
HETATM   11  F   UNL     1      66.354   8.677   6.563  1.00  0.00    -0.144 F 
ENDBRANCH   7   8
ENDBRANCH   3   7
BRANCH   1  12
HETATM   12  C   UNL     1      61.467   8.673   1.947  1.00  0.00     0.155 C 
HETATM   13  O   UNL     1      60.421   8.028   1.982  1.00  0.00    -0.293 OA
HETATM   14  C   UNL     1      62.193   8.915   0.649  1.00  0.00     0.096 C 
ENDBRANCH   1  12
TORSDOF 3
ENDMDL
MODEL 3
REMARK VINA RESULT:      -5.0      2.849      5.878
REMARK  3 active torsions:
REMARK  status: ('A' for Active; 'I' for Inactive)
REMARK    1  A    between atoms: C_1  and  O_3 
REMARK    2  A    between atoms: C_2  and  C_4 
REMARK    3  A    between atoms: O_3  and  C_6 
ROOT
HETATM    1  C   UNL     1      66.771   6.115   7.028  1.00  0.00     0.012 A 
HETATM    2  C   UNL     1      65.953   7.249   6.968  1.00  0.00     0.052 A 
HETATM    3  C   UNL     1      65.882   8.005   5.800  1.00  0.00     0.079 A 
HETATM    4  C   UNL     1      67.458   5.695   5.883  1.00  0.00     0.015 A 
HETATM    5  C   UNL     1      67.328   6.402   4.692  1.00  0.00     0.004 A 
HETATM    6  C   UNL     1      66.546   7.557   4.654  1.00  0.00     0.037 A 
ENDROOT
BRANCH   3   7
HETATM    7  O   UNL     1      65.202   9.176   5.641  1.00  0.00    -0.255 OA
BRANCH   7   8
HETATM    8  C   UNL     1      63.877   9.141   5.126  1.00  0.00     0.530 C 
HETATM    9  F   UNL     1      63.803   8.719   3.845  1.00  0.00    -0.144 F 
HETATM   10  F   UNL     1      63.324  10.369   5.216  1.00  0.00    -0.144 F 
HETATM   11  F   UNL     1      63.146   8.290   5.879  1.00  0.00    -0.144 F 
ENDBRANCH   7   8
ENDBRANCH   3   7
BRANCH   1  12
HETATM   12  C   UNL     1      66.968   5.355   8.301  1.00  0.00     0.155 C 
HETATM   13  O   UNL     1      66.241   4.398   8.562  1.00  0.00    -0.293 OA
HETATM   14  C   UNL     1      68.075   5.774   9.233  1.00  0.00     0.096 C 
ENDBRANCH   1  12
TORSDOF 3
ENDMDL
MODEL 4
REMARK VINA RESULT:      -4.9      3.893      5.634
REMARK  3 active torsions:
REMARK  status: ('A' for Active; 'I' for Inactive)
REMARK    1  A    between atoms: C_1  and  O_3 
REMARK    2  A    between atoms: C_2  and  C_4 
REMARK    3  A    between atoms: O_3  and  C_6 
ROOT
HETATM    1  C   UNL     1      63.316   9.121   4.547  1.00  0.00     0.012 A 
HETATM    2  C   UNL     1      62.913   8.724   3.267  1.00  0.00     0.052 A 
HETATM    3  C   UNL     1      62.074   9.538   2.509  1.00  0.00     0.079 A 
HETATM    4  C   UNL     1      62.937  10.377   5.034  1.00  0.00     0.015 A 
HETATM    5  C   UNL     1      62.164  11.227   4.249  1.00  0.00     0.004 A 
HETATM    6  C   UNL     1      61.730  10.804   2.992  1.00  0.00     0.037 A 
ENDROOT
BRANCH   3   7
HETATM    7  O   UNL     1      61.536   9.228   1.296  1.00  0.00    -0.255 OA
BRANCH   7   8
HETATM    8  C   UNL     1      60.483   8.273   1.230  1.00  0.00     0.530 C 
HETATM    9  F   UNL     1      59.905   8.022   2.425  1.00  0.00    -0.144 F 
HETATM   10  F   UNL     1      60.952   7.117   0.718  1.00  0.00    -0.144 F 
HETATM   11  F   UNL     1      59.525   8.748   0.404  1.00  0.00    -0.144 F 
ENDBRANCH   7   8
ENDBRANCH   3   7
BRANCH   1  12
HETATM   12  C   UNL     1      64.111   8.218   5.435  1.00  0.00     0.155 C 
HETATM   13  O   UNL     1      63.572   7.671   6.394  1.00  0.00    -0.293 OA
HETATM   14  C   UNL     1      65.566   7.984   5.118  1.00  0.00     0.096 C 
ENDBRANCH   1  12
TORSDOF 3
ENDMDL
MODEL 5
REMARK VINA RESULT:      -4.8      1.595      2.003
REMARK  3 active torsions:
REMARK  status: ('A' for Active; 'I' for Inactive)
REMARK    1  A    between atoms: C_1  and  O_3 
REMARK    2  A    between atoms: C_2  and  C_4 
REMARK    3  A    between atoms: O_3  and  C_6 
ROOT
HETATM    1  C   UNL     1      63.705   9.127   4.651  1.00  0.00     0.012 A 
HETATM    2  C   UNL     1      64.873   8.785   5.340  1.00  0.00     0.052 A 
HETATM    3  C   UNL     1      65.514   7.575   5.082  1.00  0.00     0.079 A 
HETATM    4  C   UNL     1      63.223   8.284   3.643  1.00  0.00     0.015 A 
HETATM    5  C   UNL     1      63.904   7.112   3.328  1.00  0.00     0.004 A 
HETATM    6  C   UNL     1      65.043   6.757   4.051  1.00  0.00     0.037 A 
ENDROOT
BRANCH   3   7
HETATM    7  O   UNL     1      66.598   7.083   5.746  1.00  0.00    -0.255 OA
BRANCH   7   8
HETATM    8  C   UNL     1      66.444   6.639   7.089  1.00  0.00     0.530 C 
HETATM    9  F   UNL     1      65.171   6.323   7.412  1.00  0.00    -0.144 F 
HETATM   10  F   UNL     1      66.887   7.591   7.935  1.00  0.00    -0.144 F 
HETATM   11  F   UNL     1      67.196   5.530   7.263  1.00  0.00    -0.144 F 
ENDBRANCH   7   8
ENDBRANCH   3   7
BRANCH   1  12
HETATM   12  C   UNL     1      62.924  10.356   4.991  1.00  0.00     0.155 C 
HETATM   13  O   UNL     1      63.045  10.872   6.100  1.00  0.00    -0.293 OA
HETATM   14  C   UNL     1      62.011  10.949   3.948  1.00  0.00     0.096 C 
ENDBRANCH   1  12
TORSDOF 3
ENDMDL
MODEL 6
REMARK VINA RESULT:      -4.8      1.944      2.700
REMARK  3 active torsions:
REMARK  status: ('A' for Active; 'I' for Inactive)
REMARK    1  A    between atoms: C_1  and  O_3 
REMARK    2  A    between atoms: C_2  and  C_4 
REMARK    3  A    between atoms: O_3  and  C_6 
ROOT
HETATM    1  C   UNL     1      62.508   8.932   3.202  1.00  0.00     0.012 A 
HETATM    2  C   UNL     1      63.598   8.432   3.924  1.00  0.00     0.052 A 
HETATM    3  C   UNL     1      64.137   9.162   4.981  1.00  0.00     0.079 A 
HETATM    4  C   UNL     1      61.910  10.135   3.595  1.00  0.00     0.015 A 
HETATM    5  C   UNL     1      62.396  10.829   4.698  1.00  0.00     0.004 A 
HETATM    6  C   UNL     1      63.511  10.346   5.384  1.00  0.00     0.037 A 
ENDROOT
BRANCH   3   7
HETATM    7  O   UNL     1      65.248   8.835   5.699  1.00  0.00    -0.255 OA
BRANCH   7   8
HETATM    8  C   UNL     1      65.331   7.546   6.294  1.00  0.00     0.530 C 
HETATM    9  F   UNL     1      64.144   7.070   6.728  1.00  0.00    -0.144 F 
HETATM   10  F   UNL     1      66.194   7.579   7.330  1.00  0.00    -0.144 F 
HETATM   11  F   UNL     1      65.806   6.679   5.373  1.00  0.00    -0.144 F 
ENDBRANCH   7   8
ENDBRANCH   3   7
BRANCH   1  12
HETATM   12  C   UNL     1      61.986   8.235   1.986  1.00  0.00     0.155 C 
HETATM   13  O   UNL     1      61.368   7.179   2.103  1.00  0.00    -0.293 OA
HETATM   14  C   UNL     1      62.218   8.860   0.635  1.00  0.00     0.096 C 
ENDBRANCH   1  12
TORSDOF 3
ENDMDL
MODEL 7
REMARK VINA RESULT:      -4.5      3.225      5.172
REMARK  3 active torsions:
REMARK  status: ('A' for Active; 'I' for Inactive)
REMARK    1  A    between atoms: C_1  and  O_3 
REMARK    2  A    between atoms: C_2  and  C_4 
REMARK    3  A    between atoms: O_3  and  C_6 
ROOT
HETATM    1  C   UNL     1      63.415   7.594   5.439  1.00  0.00     0.012 A 
HETATM    2  C   UNL     1      63.068   8.755   4.738  1.00  0.00     0.052 A 
HETATM    3  C   UNL     1      61.913   8.788   3.959  1.00  0.00     0.079 A 
HETATM    4  C   UNL     1      62.554   6.490   5.419  1.00  0.00     0.015 A 
HETATM    5  C   UNL     1      61.361   6.547   4.706  1.00  0.00     0.004 A 
HETATM    6  C   UNL     1      61.046   7.692   3.974  1.00  0.00     0.037 A 
ENDROOT
BRANCH   3   7
HETATM    7  O   UNL     1      61.515   9.816   3.158  1.00  0.00    -0.255 OA
BRANCH   7   8
HETATM    8  C   UNL     1      61.834   9.776   1.772  1.00  0.00     0.530 C 
HETATM    9  F   UNL     1      62.830   8.915   1.469  1.00  0.00    -0.144 F 
HETATM   10  F   UNL     1      62.178  11.010   1.349  1.00  0.00    -0.144 F 
HETATM   11  F   UNL     1      60.735   9.384   1.090  1.00  0.00    -0.144 F 
ENDBRANCH   7   8
ENDBRANCH   3   7
BRANCH   1  12
HETATM   12  C   UNL     1      64.708   7.482   6.181  1.00  0.00     0.155 C 
HETATM   13  O   UNL     1      64.720   7.044   7.329  1.00  0.00    -0.293 OA
HETATM   14  C   UNL     1      65.981   7.896   5.489  1.00  0.00     0.096 C 
ENDBRANCH   1  12
TORSDOF 3
ENDMDL
MODEL 8
REMARK VINA RESULT:      -4.5      2.858      3.915
REMARK  3 active torsions:
REMARK  status: ('A' for Active; 'I' for Inactive)
REMARK    1  A    between atoms: C_1  and  O_3 
REMARK    2  A    between atoms: C_2  and  C_4 
REMARK    3  A    between atoms: O_3  and  C_6 
ROOT
HETATM    1  C   UNL     1      65.363   7.418   4.765  1.00  0.00     0.012 A 
HETATM    2  C   UNL     1      65.546   7.748   6.113  1.00  0.00     0.052 A 
HETATM    3  C   UNL     1      66.650   7.264   6.812  1.00  0.00     0.079 A 
HETATM    4  C   UNL     1      66.335   6.663   4.098  1.00  0.00     0.015 A 
HETATM    5  C   UNL     1      67.478   6.244   4.772  1.00  0.00     0.004 A 
HETATM    6  C   UNL     1      67.631   6.540   6.127  1.00  0.00     0.037 A 
ENDROOT
BRANCH   3   7
HETATM    7  O   UNL     1      66.895   7.432   8.142  1.00  0.00    -0.255 OA
BRANCH   7   8
HETATM    8  C   UNL     1      66.692   6.335   9.026  1.00  0.00     0.530 C 
HETATM    9  F   UNL     1      67.836   5.731   9.412  1.00  0.00    -0.144 F 
HETATM   10  F   UNL     1      65.891   5.422   8.439  1.00  0.00    -0.144 F 
HETATM   11  F   UNL     1      66.075   6.790  10.138  1.00  0.00    -0.144 F 
ENDBRANCH   7   8
ENDBRANCH   3   7
BRANCH   1  12
HETATM   12  C   UNL     1      64.128   7.815   4.021  1.00  0.00     0.155 C 
HETATM   13  O   UNL     1      63.630   8.923   4.206  1.00  0.00    -0.293 OA
HETATM   14  C   UNL     1      63.528   6.842   3.039  1.00  0.00     0.096 C 
ENDBRANCH   1  12
TORSDOF 3
ENDMDL
MODEL 9
REMARK VINA RESULT:      -4.4      4.069      4.689
REMARK  3 active torsions:
REMARK  status: ('A' for Active; 'I' for Inactive)
REMARK    1  A    between atoms: C_1  and  O_3 
REMARK    2  A    between atoms: C_2  and  C_4 
REMARK    3  A    between atoms: O_3  and  C_6 
ROOT
HETATM    1  C   UNL     1      62.072   9.788   3.908  1.00  0.00     0.012 A 
HETATM    2  C   UNL     1      61.218   8.783   3.442  1.00  0.00     0.052 A 
HETATM    3  C   UNL     1      61.437   7.453   3.796  1.00  0.00     0.079 A 
HETATM    4  C   UNL     1      63.105   9.464   4.796  1.00  0.00     0.015 A 
HETATM    5  C   UNL     1      63.279   8.148   5.214  1.00  0.00     0.004 A 
HETATM    6  C   UNL     1      62.450   7.146   4.709  1.00  0.00     0.037 A 
ENDROOT
BRANCH   3   7
HETATM    7  O   UNL     1      60.740   6.375   3.337  1.00  0.00    -0.255 OA
BRANCH   7   8
HETATM    8  C   UNL     1      59.657   5.873   4.111  1.00  0.00     0.530 C 
HETATM    9  F   UNL     1      58.602   5.470   3.369  1.00  0.00    -0.144 F 
HETATM   10  F   UNL     1      59.245   6.817   4.982  1.00  0.00    -0.144 F 
HETATM   11  F   UNL     1      60.092   4.805   4.814  1.00  0.00    -0.144 F 
ENDBRANCH   7   8
ENDBRANCH   3   7
BRANCH   1  12
HETATM   12  C   UNL     1      61.942  11.205   3.448  1.00  0.00     0.155 C 
HETATM   13  O   UNL     1      61.966  12.121   4.268  1.00  0.00    -0.293 OA
HETATM   14  C   UNL     1      61.800  11.480   1.973  1.00  0.00     0.096 C 
ENDBRANCH   1  12
TORSDOF 3
ENDMDL
