MODEL 1
REMARK VINA RESULT:      -3.6      0.000      0.000
REMARK  3 active torsions:
REMARK  status: ('A' for Active; 'I' for Inactive)
REMARK    1  A    between atoms: C_3  and  C_7 
REMARK    2  A    between atoms: C_7  and  C_9 
REMARK    3  A    between atoms: N_8  and  C_9 
ROOT
HETATM    1  N   UNL     1      61.453  10.277   2.005  1.00  0.00    -0.355 N 
ATOM      2  HN  UNL     1      60.904  11.105   1.773  1.00  0.00     0.166 HD
HETATM    3  C   UNL     1      62.130  10.028   3.145  1.00  0.00     0.027 A 
HETATM    4  N   UNL     1      62.446   8.275   1.857  1.00  0.00    -0.360 N 
HETATM    5  C   UNL     1      61.666   9.186   1.242  1.00  0.00     0.180 A 
HETATM    6  C   UNL     1      62.740   8.795   3.057  1.00  0.00     0.114 A 
HETATM    7  H   UNL     1      62.740   7.407   1.498  1.00  0.00     0.166 HD
ENDROOT
BRANCH   3   8
HETATM    8  C   UNL     1      62.208  10.982   4.299  1.00  0.00     0.085 C 
BRANCH   8   9
HETATM    9  C   UNL     1      63.023  10.404   5.458  1.00  0.00     0.235 C 
BRANCH   9  10
HETATM   10  N   UNL     1      63.647  11.483   6.217  1.00  0.00    -0.079 N 
HETATM   11  H   UNL     1      63.768  11.192   7.187  1.00  0.00     0.274 HD
HETATM   12  H   UNL     1      63.053  12.312   6.181  1.00  0.00     0.274 HD
HETATM   13  H   UNL     1      64.558  11.701   5.811  1.00  0.00     0.274 HD
ENDBRANCH   9  10
ENDBRANCH   8   9
ENDBRANCH   3   8
TORSDOF 3
ENDMDL
MODEL 2
REMARK VINA RESULT:      -3.5      1.363      3.798
REMARK  3 active torsions:
REMARK  status: ('A' for Active; 'I' for Inactive)
REMARK    1  A    between atoms: C_3  and  C_7 
REMARK    2  A    between atoms: C_7  and  C_9 
REMARK    3  A    between atoms: N_8  and  C_9 
ROOT
HETATM    1  N   UNL     1      62.384  11.718   4.736  1.00  0.00    -0.355 N 
ATOM      2  HN  UNL     1      62.130  12.700   4.634  1.00  0.00     0.166 HD
HETATM    3  C   UNL     1      62.283  10.737   3.815  1.00  0.00     0.027 A 
HETATM    4  N   UNL     1      63.113   9.792   5.618  1.00  0.00    -0.360 N 
HETATM    5  C   UNL     1      62.896  11.106   5.824  1.00  0.00     0.180 A 
HETATM    6  C   UNL     1      62.734   9.552   4.355  1.00  0.00     0.114 A 
HETATM    7  H   UNL     1      63.475   9.143   6.263  1.00  0.00     0.166 HD
ENDROOT
BRANCH   3   8
HETATM    8  C   UNL     1      61.734  10.938   2.435  1.00  0.00     0.085 C 
BRANCH   8   9
HETATM    9  C   UNL     1      61.889   9.681   1.575  1.00  0.00     0.235 C 
BRANCH   9  10
HETATM   10  N   UNL     1      60.605   8.997   1.457  1.00  0.00    -0.079 N 
HETATM   11  H   UNL     1      59.893   9.659   1.150  1.00  0.00     0.274 HD
HETATM   12  H   UNL     1      60.341   8.610   2.363  1.00  0.00     0.274 HD
HETATM   13  H   UNL     1      60.684   8.242   0.775  1.00  0.00     0.274 HD
ENDBRANCH   9  10
ENDBRANCH   8   9
ENDBRANCH   3   8
TORSDOF 3
ENDMDL
MODEL 3
REMARK VINA RESULT:      -3.3      1.645      2.227
REMARK  3 active torsions:
REMARK  status: ('A' for Active; 'I' for Inactive)
REMARK    1  A    between atoms: C_3  and  C_7 
REMARK    2  A    between atoms: C_7  and  C_9 
REMARK    3  A    between atoms: N_8  and  C_9 
ROOT
HETATM    1  N   UNL     1      62.390   9.209   2.502  1.00  0.00    -0.355 N 
ATOM      2  HN  UNL     1      62.684   8.261   2.267  1.00  0.00     0.166 HD
HETATM    3  C   UNL     1      62.435   9.814   3.706  1.00  0.00     0.027 A 
HETATM    4  N   UNL     1      61.586  11.291   2.317  1.00  0.00    -0.360 N 
HETATM    5  C   UNL     1      61.868  10.139   1.677  1.00  0.00     0.180 A 
HETATM    6  C   UNL     1      61.943  11.097   3.594  1.00  0.00     0.114 A 
HETATM    7  H   UNL     1      61.196  12.106   1.927  1.00  0.00     0.166 HD
ENDROOT
BRANCH   3   8
HETATM    8  C   UNL     1      62.926   9.153   4.959  1.00  0.00     0.085 C 
BRANCH   8   9
HETATM    9  C   UNL     1      64.327   8.563   4.777  1.00  0.00     0.235 C 
BRANCH   9  10
HETATM   10  N   UNL     1      65.104   8.739   6.000  1.00  0.00    -0.079 N 
HETATM   11  H   UNL     1      65.875   8.071   6.011  1.00  0.00     0.274 HD
HETATM   12  H   UNL     1      64.505   8.581   6.810  1.00  0.00     0.274 HD
HETATM   13  H   UNL     1      65.476   9.689   6.032  1.00  0.00     0.274 HD
ENDBRANCH   9  10
ENDBRANCH   8   9
ENDBRANCH   3   8
TORSDOF 3
ENDMDL
MODEL 4
REMARK VINA RESULT:      -3.3      3.900      5.403
REMARK  3 active torsions:
REMARK  status: ('A' for Active; 'I' for Inactive)
REMARK    1  A    between atoms: C_3  and  C_7 
REMARK    2  A    between atoms: C_7  and  C_9 
REMARK    3  A    between atoms: N_8  and  C_9 
ROOT
HETATM    1  N   UNL     1      64.916   7.036   6.885  1.00  0.00    -0.355 N 
ATOM      2  HN  UNL     1      63.961   6.679   6.908  1.00  0.00     0.166 HD
HETATM    3  C   UNL     1      65.465   7.872   5.980  1.00  0.00     0.027 A 
HETATM    4  N   UNL     1      67.057   7.414   7.424  1.00  0.00    -0.360 N 
HETATM    5  C   UNL     1      65.915   6.778   7.753  1.00  0.00     0.180 A 
HETATM    6  C   UNL     1      66.782   8.108   6.311  1.00  0.00     0.114 A 
HETATM    7  H   UNL     1      67.916   7.375   7.903  1.00  0.00     0.166 HD
ENDROOT
BRANCH   3   8
HETATM    8  C   UNL     1      64.732   8.419   4.793  1.00  0.00     0.085 C 
BRANCH   8   9
HETATM    9  C   UNL     1      63.388   9.034   5.190  1.00  0.00     0.235 C 
BRANCH   9  10
HETATM   10  N   UNL     1      63.596  10.356   5.773  1.00  0.00    -0.079 N 
HETATM   11  H   UNL     1      64.543  10.674   5.565  1.00  0.00     0.274 HD
HETATM   12  H   UNL     1      63.468  10.305   6.784  1.00  0.00     0.274 HD
HETATM   13  H   UNL     1      62.922  11.011   5.377  1.00  0.00     0.274 HD
ENDBRANCH   9  10
ENDBRANCH   8   9
ENDBRANCH   3   8
TORSDOF 3
ENDMDL
MODEL 5
REMARK VINA RESULT:      -3.3      1.659      3.538
REMARK  3 active torsions:
REMARK  status: ('A' for Active; 'I' for Inactive)
REMARK    1  A    between atoms: C_3  and  C_7 
REMARK    2  A    between atoms: C_7  and  C_9 
REMARK    3  A    between atoms: N_8  and  C_9 
ROOT
HETATM    1  N   UNL     1      63.684   8.256   3.838  1.00  0.00    -0.355 N 
ATOM      2  HN  UNL     1      63.743   7.548   3.107  1.00  0.00     0.166 HD
HETATM    3  C   UNL     1      62.731   9.197   4.003  1.00  0.00     0.027 A 
HETATM    4  N   UNL     1      64.162   9.489   5.645  1.00  0.00    -0.360 N 
HETATM    5  C   UNL     1      64.540   8.462   4.859  1.00  0.00     0.180 A 
HETATM    6  C   UNL     1      63.023   9.956   5.116  1.00  0.00     0.114 A 
HETATM    7  H   UNL     1      64.629   9.828   6.443  1.00  0.00     0.166 HD
ENDROOT
BRANCH   3   8
HETATM    8  C   UNL     1      61.564   9.378   3.080  1.00  0.00     0.085 C 
BRANCH   8   9
HETATM    9  C   UNL     1      61.928  10.238   1.868  1.00  0.00     0.235 C 
BRANCH   9  10
HETATM   10  N   UNL     1      61.584  11.633   2.124  1.00  0.00    -0.079 N 
HETATM   11  H   UNL     1      60.738  11.676   2.692  1.00  0.00     0.274 HD
HETATM   12  H   UNL     1      61.424  12.112   1.237  1.00  0.00     0.274 HD
HETATM   13  H   UNL     1      62.351  12.086   2.621  1.00  0.00     0.274 HD
ENDBRANCH   9  10
ENDBRANCH   8   9
ENDBRANCH   3   8
TORSDOF 3
ENDMDL
MODEL 6
REMARK VINA RESULT:      -3.2      5.352      6.986
REMARK  3 active torsions:
REMARK  status: ('A' for Active; 'I' for Inactive)
REMARK    1  A    between atoms: C_3  and  C_7 
REMARK    2  A    between atoms: C_7  and  C_9 
REMARK    3  A    between atoms: N_8  and  C_9 
ROOT
HETATM    1  N   UNL     1      67.395   7.294   8.464  1.00  0.00    -0.355 N 
ATOM      2  HN  UNL     1      68.058   8.053   8.619  1.00  0.00     0.166 HD
HETATM    3  C   UNL     1      66.558   7.127   7.419  1.00  0.00     0.027 A 
HETATM    4  N   UNL     1      66.210   5.415   8.753  1.00  0.00    -0.360 N 
HETATM    5  C   UNL     1      67.158   6.230   9.258  1.00  0.00     0.180 A 
HETATM    6  C   UNL     1      65.830   5.970   7.594  1.00  0.00     0.114 A 
HETATM    7  H   UNL     1      65.867   4.584   9.154  1.00  0.00     0.166 HD
ENDROOT
BRANCH   3   8
HETATM    8  C   UNL     1      66.445   8.088   6.275  1.00  0.00     0.085 C 
BRANCH   8   9
HETATM    9  C   UNL     1      65.121   7.924   5.525  1.00  0.00     0.235 C 
BRANCH   9  10
HETATM   10  N   UNL     1      64.375   9.179   5.549  1.00  0.00    -0.079 N 
HETATM   11  H   UNL     1      63.381   8.981   5.666  1.00  0.00     0.274 HD
HETATM   12  H   UNL     1      64.522   9.679   4.672  1.00  0.00     0.274 HD
HETATM   13  H   UNL     1      64.701   9.753   6.327  1.00  0.00     0.274 HD
ENDBRANCH   9  10
ENDBRANCH   8   9
ENDBRANCH   3   8
TORSDOF 3
ENDMDL
MODEL 7
REMARK VINA RESULT:      -3.0     13.259     14.083
REMARK  3 active torsions:
REMARK  status: ('A' for Active; 'I' for Inactive)
REMARK    1  A    between atoms: C_3  and  C_7 
REMARK    2  A    between atoms: C_7  and  C_9 
REMARK    3  A    between atoms: N_8  and  C_9 
ROOT
HETATM    1  N   UNL     1      57.886   1.607  14.502  1.00  0.00    -0.355 N 
ATOM      2  HN  UNL     1      57.695   1.275  15.448  1.00  0.00     0.166 HD
HETATM    3  C   UNL     1      56.995   2.006  13.571  1.00  0.00     0.027 A 
HETATM    4  N   UNL     1      58.976   2.211  12.642  1.00  0.00    -0.360 N 
HETATM    5  C   UNL     1      59.085   1.747  13.902  1.00  0.00     0.180 A 
HETATM    6  C   UNL     1      57.665   2.380  12.425  1.00  0.00     0.114 A 
HETATM    7  H   UNL     1      59.710   2.388  12.009  1.00  0.00     0.166 HD
ENDROOT
BRANCH   3   8
HETATM    8  C   UNL     1      55.510   2.002  13.776  1.00  0.00     0.085 C 
BRANCH   8   9
HETATM    9  C   UNL     1      54.874   3.324  13.341  1.00  0.00     0.235 C 
BRANCH   9  10
HETATM   10  N   UNL     1      54.494   4.105  14.515  1.00  0.00    -0.079 N 
HETATM   11  H   UNL     1      55.003   3.764  15.330  1.00  0.00     0.274 HD
HETATM   12  H   UNL     1      53.491   4.011  14.675  1.00  0.00     0.274 HD
HETATM   13  H   UNL     1      54.722   5.087  14.357  1.00  0.00     0.274 HD
ENDBRANCH   9  10
ENDBRANCH   8   9
ENDBRANCH   3   8
TORSDOF 3
ENDMDL
MODEL 8
REMARK VINA RESULT:      -2.9      2.713      3.236
REMARK  3 active torsions:
REMARK  status: ('A' for Active; 'I' for Inactive)
REMARK    1  A    between atoms: C_3  and  C_7 
REMARK    2  A    between atoms: C_7  and  C_9 
REMARK    3  A    between atoms: N_8  and  C_9 
ROOT
HETATM    1  N   UNL     1      61.685   7.582   4.373  1.00  0.00    -0.355 N 
ATOM      2  HN  UNL     1      61.422   7.847   3.424  1.00  0.00     0.166 HD
HETATM    3  C   UNL     1      62.604   8.164   5.170  1.00  0.00     0.027 A 
HETATM    4  N   UNL     1      61.765   6.497   6.330  1.00  0.00    -0.360 N 
HETATM    5  C   UNL     1      61.190   6.569   5.113  1.00  0.00     0.180 A 
HETATM    6  C   UNL     1      62.653   7.499   6.376  1.00  0.00     0.114 A 
HETATM    7  H   UNL     1      61.572   5.842   7.039  1.00  0.00     0.166 HD
ENDROOT
BRANCH   3   8
HETATM    8  C   UNL     1      63.445   9.336   4.761  1.00  0.00     0.085 C 
BRANCH   8   9
HETATM    9  C   UNL     1      62.858  10.657   5.263  1.00  0.00     0.235 C 
BRANCH   9  10
HETATM   10  N   UNL     1      63.774  11.281   6.214  1.00  0.00    -0.079 N 
HETATM   11  H   UNL     1      63.293  12.035   6.704  1.00  0.00     0.274 HD
HETATM   12  H   UNL     1      64.578  11.659   5.713  1.00  0.00     0.274 HD
HETATM   13  H   UNL     1      64.091  10.584   6.888  1.00  0.00     0.274 HD
ENDBRANCH   9  10
ENDBRANCH   8   9
ENDBRANCH   3   8
TORSDOF 3
ENDMDL
MODEL 9
REMARK VINA RESULT:      -2.8     13.321     14.049
REMARK  3 active torsions:
REMARK  status: ('A' for Active; 'I' for Inactive)
REMARK    1  A    between atoms: C_3  and  C_7 
REMARK    2  A    between atoms: C_7  and  C_9 
REMARK    3  A    between atoms: N_8  and  C_9 
ROOT
HETATM    1  N   UNL     1      58.046   1.182  12.078  1.00  0.00    -0.355 N 
ATOM      2  HN  UNL     1      57.557   0.879  11.236  1.00  0.00     0.166 HD
HETATM    3  C   UNL     1      57.520   1.427  13.296  1.00  0.00     0.027 A 
HETATM    4  N   UNL     1      59.675   1.820  13.476  1.00  0.00    -0.360 N 
HETATM    5  C   UNL     1      59.363   1.431  12.224  1.00  0.00     0.180 A 
HETATM    6  C   UNL     1      58.522   1.817  14.159  1.00  0.00     0.114 A 
HETATM    7  H   UNL     1      60.567   2.059  13.818  1.00  0.00     0.166 HD
ENDROOT
BRANCH   3   8
HETATM    8  C   UNL     1      56.061   1.308  13.618  1.00  0.00     0.085 C 
BRANCH   8   9
HETATM    9  C   UNL     1      55.343   2.655  13.499  1.00  0.00     0.235 C 
BRANCH   9  10
HETATM   10  N   UNL     1      54.811   3.053  14.798  1.00  0.00    -0.079 N 
HETATM   11  H   UNL     1      54.177   2.332  15.142  1.00  0.00     0.274 HD
HETATM   12  H   UNL     1      54.306   3.934  14.703  1.00  0.00     0.274 HD
HETATM   13  H   UNL     1      55.580   3.172  15.458  1.00  0.00     0.274 HD
ENDBRANCH   9  10
ENDBRANCH   8   9
ENDBRANCH   3   8
TORSDOF 3
ENDMDL
