MODEL 1
REMARK VINA RESULT:      -5.0      0.000      0.000
REMARK  3 active torsions:
REMARK  status: ('A' for Active; 'I' for Inactive)
REMARK    1  A    between atoms: C_1  and  S_2 
REMARK    2  A    between atoms: S_2  and  C_6 
REMARK    3  A    between atoms: C_7  and  O_12 
ROOT
HETATM    1  C   UNL     1      62.133   9.115   3.810  1.00  0.00     0.009 A 
HETATM    2  C   UNL     1      63.676  10.644   5.567  1.00  0.00     0.065 A 
HETATM    3  C   UNL     1      61.782  10.440   4.095  1.00  0.00     0.021 A 
HETATM    4  C   UNL     1      63.261   8.561   4.428  1.00  0.00     0.021 A 
HETATM    5  C   UNL     1      62.556  11.206   4.968  1.00  0.00     0.038 A 
HETATM    6  C   UNL     1      64.038   9.327   5.303  1.00  0.00     0.038 A 
ENDROOT
BRANCH   1   7
HETATM    7  S   UNL     1      61.064   8.145   2.767  1.00  0.00    -0.016 SA
BRANCH   7   8
HETATM    8  C   UNL     1      61.684   8.540   1.126  1.00  0.00     0.448 C 
HETATM    9  F   UNL     1      62.217   9.780   1.022  1.00  0.00    -0.160 F 
HETATM   10  F   UNL     1      60.696   8.450   0.203  1.00  0.00    -0.160 F 
HETATM   11  F   UNL     1      62.651   7.662   0.760  1.00  0.00    -0.160 F 
ENDBRANCH   7   8
ENDBRANCH   1   7
BRANCH   2  12
HETATM   12  O   UNL     1      64.392  11.423   6.426  1.00  0.00    -0.361 OA
HETATM   13  H   UNL     1      64.839  12.181   6.109  1.00  0.00     0.217 HD
ENDBRANCH   2  12
TORSDOF 3
ENDMDL
MODEL 2
REMARK VINA RESULT:      -4.7      0.272      1.418
REMARK  3 active torsions:
REMARK  status: ('A' for Active; 'I' for Inactive)
REMARK    1  A    between atoms: C_1  and  S_2 
REMARK    2  A    between atoms: S_2  and  C_6 
REMARK    3  A    between atoms: C_7  and  O_12 
ROOT
HETATM    1  C   UNL     1      62.136   8.855   3.753  1.00  0.00     0.009 A 
HETATM    2  C   UNL     1      63.574  10.570   5.426  1.00  0.00     0.065 A 
HETATM    3  C   UNL     1      63.280   8.402   4.420  1.00  0.00     0.021 A 
HETATM    4  C   UNL     1      61.728  10.184   3.924  1.00  0.00     0.021 A 
HETATM    5  C   UNL     1      63.995   9.257   5.261  1.00  0.00     0.038 A 
HETATM    6  C   UNL     1      62.444  11.042   4.766  1.00  0.00     0.038 A 
ENDROOT
BRANCH   1   7
HETATM    7  S   UNL     1      61.311   7.760   2.616  1.00  0.00    -0.016 SA
BRANCH   7   8
HETATM    8  C   UNL     1      61.828   8.418   1.023  1.00  0.00     0.448 C 
HETATM    9  F   UNL     1      62.460   9.612   1.099  1.00  0.00    -0.160 F 
HETATM   10  F   UNL     1      60.764   8.579   0.200  1.00  0.00    -0.160 F 
HETATM   11  F   UNL     1      62.679   7.559   0.410  1.00  0.00    -0.160 F 
ENDBRANCH   7   8
ENDBRANCH   1   7
BRANCH   2  12
HETATM   12  O   UNL     1      64.312  11.374   6.242  1.00  0.00    -0.361 OA
HETATM   13  H   UNL     1      63.904  12.087   6.690  1.00  0.00     0.217 HD
ENDBRANCH   2  12
TORSDOF 3
ENDMDL
MODEL 3
REMARK VINA RESULT:      -4.6      3.103      3.887
REMARK  3 active torsions:
REMARK  status: ('A' for Active; 'I' for Inactive)
REMARK    1  A    between atoms: C_1  and  S_2 
REMARK    2  A    between atoms: S_2  and  C_6 
REMARK    3  A    between atoms: C_7  and  O_12 
ROOT
HETATM    1  C   UNL     1      62.364   8.962   3.800  1.00  0.00     0.009 A 
HETATM    2  C   UNL     1      61.897  11.302   2.345  1.00  0.00     0.065 A 
HETATM    3  C   UNL     1      62.271  10.198   4.452  1.00  0.00     0.021 A 
HETATM    4  C   UNL     1      62.234   8.916   2.406  1.00  0.00     0.021 A 
HETATM    5  C   UNL     1      62.031  11.365   3.726  1.00  0.00     0.038 A 
HETATM    6  C   UNL     1      61.994  10.086   1.677  1.00  0.00     0.038 A 
ENDROOT
BRANCH   1   7
HETATM    7  S   UNL     1      62.766   7.512   4.753  1.00  0.00    -0.016 SA
BRANCH   7   8
HETATM    8  C   UNL     1      64.551   7.417   4.551  1.00  0.00     0.448 C 
HETATM    9  F   UNL     1      65.191   8.594   4.743  1.00  0.00    -0.160 F 
HETATM   10  F   UNL     1      64.874   6.983   3.310  1.00  0.00    -0.160 F 
HETATM   11  F   UNL     1      65.081   6.531   5.432  1.00  0.00    -0.160 F 
ENDBRANCH   7   8
ENDBRANCH   1   7
BRANCH   2  12
HETATM   12  O   UNL     1      61.682  12.469   1.676  1.00  0.00    -0.361 OA
HETATM   13  H   UNL     1      61.355  12.452   0.799  1.00  0.00     0.217 HD
ENDBRANCH   2  12
TORSDOF 3
ENDMDL
MODEL 4
REMARK VINA RESULT:      -4.6      1.599      2.309
REMARK  3 active torsions:
REMARK  status: ('A' for Active; 'I' for Inactive)
REMARK    1  A    between atoms: C_1  and  S_2 
REMARK    2  A    between atoms: S_2  and  C_6 
REMARK    3  A    between atoms: C_7  and  O_12 
ROOT
HETATM    1  C   UNL     1      62.208   9.519   2.629  1.00  0.00     0.009 A 
HETATM    2  C   UNL     1      62.832  10.744   5.062  1.00  0.00     0.065 A 
HETATM    3  C   UNL     1      62.947   8.833   3.601  1.00  0.00     0.021 A 
HETATM    4  C   UNL     1      61.797  10.833   2.887  1.00  0.00     0.021 A 
HETATM    5  C   UNL     1      63.253   9.442   4.819  1.00  0.00     0.038 A 
HETATM    6  C   UNL     1      62.104  11.445   4.107  1.00  0.00     0.038 A 
ENDROOT
BRANCH   1   7
HETATM    7  S   UNL     1      61.923   8.740   1.053  1.00  0.00    -0.016 SA
BRANCH   7   8
HETATM    8  C   UNL     1      60.302   7.997   1.292  1.00  0.00     0.448 C 
HETATM    9  F   UNL     1      59.873   8.011   2.576  1.00  0.00    -0.160 F 
HETATM   10  F   UNL     1      60.299   6.705   0.883  1.00  0.00    -0.160 F 
HETATM   11  F   UNL     1      59.369   8.649   0.556  1.00  0.00    -0.160 F 
ENDBRANCH   7   8
ENDBRANCH   1   7
BRANCH   2  12
HETATM   12  O   UNL     1      63.169  11.305   6.257  1.00  0.00    -0.361 OA
HETATM   13  H   UNL     1      64.009  11.704   6.367  1.00  0.00     0.217 HD
ENDBRANCH   2  12
TORSDOF 3
ENDMDL
MODEL 5
REMARK VINA RESULT:      -4.5      1.988      2.401
REMARK  3 active torsions:
REMARK  status: ('A' for Active; 'I' for Inactive)
REMARK    1  A    between atoms: C_1  and  S_2 
REMARK    2  A    between atoms: S_2  and  C_6 
REMARK    3  A    between atoms: C_7  and  O_12 
ROOT
HETATM    1  C   UNL     1      62.053   9.013   2.196  1.00  0.00     0.009 A 
HETATM    2  C   UNL     1      62.085  11.224   3.903  1.00  0.00     0.065 A 
HETATM    3  C   UNL     1      61.746  10.289   1.710  1.00  0.00     0.021 A 
HETATM    4  C   UNL     1      62.363   8.855   3.553  1.00  0.00     0.021 A 
HETATM    5  C   UNL     1      61.769  11.395   2.562  1.00  0.00     0.038 A 
HETATM    6  C   UNL     1      62.385   9.963   4.407  1.00  0.00     0.038 A 
ENDROOT
BRANCH   1   7
HETATM    7  S   UNL     1      61.919   7.617   1.097  1.00  0.00    -0.016 SA
BRANCH   7   8
HETATM    8  C   UNL     1      60.136   7.404   0.980  1.00  0.00     0.448 C 
HETATM    9  F   UNL     1      59.522   8.324   0.200  1.00  0.00    -0.160 F 
HETATM   10  F   UNL     1      59.562   7.469   2.205  1.00  0.00    -0.160 F 
HETATM   11  F   UNL     1      59.838   6.186   0.465  1.00  0.00    -0.160 F 
ENDBRANCH   7   8
ENDBRANCH   1   7
BRANCH   2  12
HETATM   12  O   UNL     1      62.077  12.329   4.702  1.00  0.00    -0.361 OA
HETATM   13  H   UNL     1      62.836  12.873   4.755  1.00  0.00     0.217 HD
ENDBRANCH   2  12
TORSDOF 3
ENDMDL
MODEL 6
REMARK VINA RESULT:      -4.5      3.644      4.566
REMARK  3 active torsions:
REMARK  status: ('A' for Active; 'I' for Inactive)
REMARK    1  A    between atoms: C_1  and  S_2 
REMARK    2  A    between atoms: S_2  and  C_6 
REMARK    3  A    between atoms: C_7  and  O_12 
ROOT
HETATM    1  C   UNL     1      63.169   8.690   4.848  1.00  0.00     0.009 A 
HETATM    2  C   UNL     1      61.977  10.727   3.353  1.00  0.00     0.065 A 
HETATM    3  C   UNL     1      62.701   8.440   3.552  1.00  0.00     0.021 A 
HETATM    4  C   UNL     1      63.019   9.972   5.390  1.00  0.00     0.021 A 
HETATM    5  C   UNL     1      62.111   9.459   2.803  1.00  0.00     0.038 A 
HETATM    6  C   UNL     1      62.427  10.995   4.641  1.00  0.00     0.038 A 
ENDROOT
BRANCH   1   7
HETATM    7  S   UNL     1      63.826   7.338   5.803  1.00  0.00    -0.016 SA
BRANCH   7   8
HETATM    8  C   UNL     1      65.599   7.563   5.597  1.00  0.00     0.448 C 
HETATM    9  F   UNL     1      66.345   6.561   6.118  1.00  0.00    -0.160 F 
HETATM   10  F   UNL     1      66.010   8.714   6.181  1.00  0.00    -0.160 F 
HETATM   11  F   UNL     1      65.916   7.649   4.282  1.00  0.00    -0.160 F 
ENDBRANCH   7   8
ENDBRANCH   1   7
BRANCH   2  12
HETATM   12  O   UNL     1      61.378  11.686   2.592  1.00  0.00    -0.361 OA
HETATM   13  H   UNL     1      60.446  11.772   2.594  1.00  0.00     0.217 HD
ENDBRANCH   2  12
TORSDOF 3
ENDMDL
MODEL 7
REMARK VINA RESULT:      -4.4      3.102      4.042
REMARK  3 active torsions:
REMARK  status: ('A' for Active; 'I' for Inactive)
REMARK    1  A    between atoms: C_1  and  S_2 
REMARK    2  A    between atoms: S_2  and  C_6 
REMARK    3  A    between atoms: C_7  and  O_12 
ROOT
HETATM    1  C   UNL     1      62.083   8.440   3.397  1.00  0.00     0.009 A 
HETATM    2  C   UNL     1      61.948  10.993   2.271  1.00  0.00     0.065 A 
HETATM    3  C   UNL     1      62.079   9.577   4.214  1.00  0.00     0.021 A 
HETATM    4  C   UNL     1      62.033   8.599   2.007  1.00  0.00     0.021 A 
HETATM    5  C   UNL     1      62.004  10.852   3.652  1.00  0.00     0.038 A 
HETATM    6  C   UNL     1      61.959   9.877   1.442  1.00  0.00     0.038 A 
ENDROOT
BRANCH   1   7
HETATM    7  S   UNL     1      62.277   6.837   4.151  1.00  0.00    -0.016 SA
BRANCH   7   8
HETATM    8  C   UNL     1      63.963   6.918   4.772  1.00  0.00     0.448 C 
HETATM    9  F   UNL     1      64.540   5.708   4.958  1.00  0.00    -0.160 F 
HETATM   10  F   UNL     1      64.008   7.569   5.959  1.00  0.00    -0.160 F 
HETATM   11  F   UNL     1      64.753   7.605   3.911  1.00  0.00    -0.160 F 
ENDBRANCH   7   8
ENDBRANCH   1   7
BRANCH   2  12
HETATM   12  O   UNL     1      61.894  12.258   1.766  1.00  0.00    -0.361 OA
HETATM   13  H   UNL     1      62.624  12.604   1.293  1.00  0.00     0.217 HD
ENDBRANCH   2  12
TORSDOF 3
ENDMDL
MODEL 8
REMARK VINA RESULT:      -4.3      4.059      4.880
REMARK  3 active torsions:
REMARK  status: ('A' for Active; 'I' for Inactive)
REMARK    1  A    between atoms: C_1  and  S_2 
REMARK    2  A    between atoms: S_2  and  C_6 
REMARK    3  A    between atoms: C_7  and  O_12 
ROOT
HETATM    1  C   UNL     1      64.132   8.335   4.652  1.00  0.00     0.009 A 
HETATM    2  C   UNL     1      62.154  10.107   3.786  1.00  0.00     0.065 A 
HETATM    3  C   UNL     1      63.871   9.511   5.365  1.00  0.00     0.021 A 
HETATM    4  C   UNL     1      63.398   8.064   3.491  1.00  0.00     0.021 A 
HETATM    5  C   UNL     1      62.878  10.393   4.936  1.00  0.00     0.038 A 
HETATM    6  C   UNL     1      62.403   8.948   3.059  1.00  0.00     0.038 A 
ENDROOT
BRANCH   1   7
HETATM    7  S   UNL     1      65.472   7.286   5.180  1.00  0.00    -0.016 SA
BRANCH   7   8
HETATM    8  C   UNL     1      64.752   6.445   6.597  1.00  0.00     0.448 C 
HETATM    9  F   UNL     1      65.224   6.874   7.791  1.00  0.00    -0.160 F 
HETATM   10  F   UNL     1      64.978   5.111   6.533  1.00  0.00    -0.160 F 
HETATM   11  F   UNL     1      63.407   6.619   6.619  1.00  0.00    -0.160 F 
ENDBRANCH   7   8
ENDBRANCH   1   7
BRANCH   2  12
HETATM   12  O   UNL     1      61.207  11.006   3.395  1.00  0.00    -0.361 OA
HETATM   13  H   UNL     1      60.985  11.724   3.952  1.00  0.00     0.217 HD
ENDBRANCH   2  12
TORSDOF 3
ENDMDL
MODEL 9
REMARK VINA RESULT:      -4.2      3.259      3.911
REMARK  3 active torsions:
REMARK  status: ('A' for Active; 'I' for Inactive)
REMARK    1  A    between atoms: C_1  and  S_2 
REMARK    2  A    between atoms: S_2  and  C_6 
REMARK    3  A    between atoms: C_7  and  O_12 
ROOT
HETATM    1  C   UNL     1      62.076   8.304   3.251  1.00  0.00     0.009 A 
HETATM    2  C   UNL     1      61.956  10.913   2.260  1.00  0.00     0.065 A 
HETATM    3  C   UNL     1      62.098   9.397   4.125  1.00  0.00     0.021 A 
HETATM    4  C   UNL     1      62.007   8.535   1.871  1.00  0.00     0.021 A 
HETATM    5  C   UNL     1      62.031  10.701   3.630  1.00  0.00     0.038 A 
HETATM    6  C   UNL     1      61.941   9.841   1.374  1.00  0.00     0.038 A 
ENDROOT
BRANCH   1   7
HETATM    7  S   UNL     1      62.260   6.663   3.918  1.00  0.00    -0.016 SA
BRANCH   7   8
HETATM    8  C   UNL     1      60.638   6.367   4.636  1.00  0.00     0.448 C 
HETATM    9  F   UNL     1      59.665   7.172   4.149  1.00  0.00    -0.160 F 
HETATM   10  F   UNL     1      60.666   6.538   5.979  1.00  0.00    -0.160 F 
HETATM   11  F   UNL     1      60.244   5.089   4.406  1.00  0.00    -0.160 F 
ENDBRANCH   7   8
ENDBRANCH   1   7
BRANCH   2  12
HETATM   12  O   UNL     1      61.911  12.203   1.821  1.00  0.00    -0.361 OA
HETATM   13  H   UNL     1      61.141  12.527   1.398  1.00  0.00     0.217 HD
ENDBRANCH   2  12
TORSDOF 3
ENDMDL
