MODEL 1
REMARK VINA RESULT:      -4.1      0.000      0.000
REMARK  1 active torsions:
REMARK  status: ('A' for Active; 'I' for Inactive)
REMARK    1  A    between atoms: C_1  and  O_11 
ROOT
HETATM    1  C   UNL     1      66.556   7.827   6.344  1.00  0.00     0.059 C 
HETATM    2  C   UNL     1      65.028   6.924   4.555  1.00  0.00    -0.011 C 
HETATM    3  C   UNL     1      65.630   5.491   6.543  1.00  0.00    -0.011 C 
HETATM    4  C   UNL     1      67.371   6.015   4.794  1.00  0.00    -0.011 C 
HETATM    5  C   UNL     1      65.441   8.177   5.343  1.00  0.00     0.042 C 
HETATM    6  C   UNL     1      66.040   6.754   7.319  1.00  0.00     0.042 C 
HETATM    7  C   UNL     1      67.773   7.273   5.582  1.00  0.00     0.042 C 
HETATM    8  C   UNL     1      64.522   5.854   5.538  1.00  0.00     0.009 C 
HETATM    9  C   UNL     1      66.254   6.377   3.800  1.00  0.00     0.009 C 
HETATM   10  C   UNL     1      66.850   4.950   5.775  1.00  0.00     0.009 C 
ENDROOT
BRANCH   1  11
HETATM   11  O   UNL     1      66.930   8.984   7.077  1.00  0.00    -0.390 OA
HETATM   12  H   UNL     1      66.197   9.620   7.075  1.00  0.00     0.210 HD
ENDBRANCH   1  11
TORSDOF 1
ENDMDL
MODEL 2
REMARK VINA RESULT:      -4.1      0.058      2.250
REMARK  1 active torsions:
REMARK  status: ('A' for Active; 'I' for Inactive)
REMARK    1  A    between atoms: C_1  and  O_11 
ROOT
HETATM    1  C   UNL     1      66.541   7.800   6.334  1.00  0.00     0.059 C 
HETATM    2  C   UNL     1      65.565   5.483   6.514  1.00  0.00    -0.011 C 
HETATM    3  C   UNL     1      67.369   5.966   4.815  1.00  0.00    -0.011 C 
HETATM    4  C   UNL     1      65.054   6.918   4.501  1.00  0.00    -0.011 C 
HETATM    5  C   UNL     1      65.977   6.740   7.297  1.00  0.00     0.042 C 
HETATM    6  C   UNL     1      67.769   7.221   5.609  1.00  0.00     0.042 C 
HETATM    7  C   UNL     1      65.469   8.168   5.293  1.00  0.00     0.042 C 
HETATM    8  C   UNL     1      66.797   4.916   5.786  1.00  0.00     0.009 C 
HETATM    9  C   UNL     1      64.495   5.865   5.474  1.00  0.00     0.009 C 
HETATM   10  C   UNL     1      66.288   6.342   3.786  1.00  0.00     0.009 C 
ENDROOT
BRANCH   1  11
HETATM   11  O   UNL     1      66.928   8.957   7.060  1.00  0.00    -0.390 OA
HETATM   12  H   UNL     1      67.531   9.492   6.519  1.00  0.00     0.210 HD
ENDBRANCH   1  11
TORSDOF 1
ENDMDL
MODEL 3
REMARK VINA RESULT:      -4.1      0.072      2.244
REMARK  1 active torsions:
REMARK  status: ('A' for Active; 'I' for Inactive)
REMARK    1  A    between atoms: C_1  and  O_11 
ROOT
HETATM    1  C   UNL     1      66.567   7.846   6.377  1.00  0.00     0.059 C 
HETATM    2  C   UNL     1      67.375   6.077   4.774  1.00  0.00    -0.011 C 
HETATM    3  C   UNL     1      65.001   6.925   4.629  1.00  0.00    -0.011 C 
HETATM    4  C   UNL     1      65.710   5.485   6.576  1.00  0.00    -0.011 C 
HETATM    5  C   UNL     1      67.769   7.338   5.561  1.00  0.00     0.042 C 
HETATM    6  C   UNL     1      65.411   8.180   5.419  1.00  0.00     0.042 C 
HETATM    7  C   UNL     1      66.111   6.749   7.355  1.00  0.00     0.042 C 
HETATM    8  C   UNL     1      66.212   6.418   3.825  1.00  0.00     0.009 C 
HETATM    9  C   UNL     1      66.917   4.989   5.762  1.00  0.00     0.009 C 
HETATM   10  C   UNL     1      64.558   5.829   5.616  1.00  0.00     0.009 C 
ENDROOT
BRANCH   1  11
HETATM   11  O   UNL     1      66.931   9.015   7.097  1.00  0.00    -0.390 OA
HETATM   12  H   UNL     1      66.289   9.719   6.916  1.00  0.00     0.210 HD
ENDBRANCH   1  11
TORSDOF 1
ENDMDL
MODEL 4
REMARK VINA RESULT:      -4.0      1.310      2.825
REMARK  1 active torsions:
REMARK  status: ('A' for Active; 'I' for Inactive)
REMARK    1  A    between atoms: C_1  and  O_11 
ROOT
HETATM    1  C   UNL     1      65.234   6.911   6.343  1.00  0.00     0.059 C 
HETATM    2  C   UNL     1      67.694   6.419   6.587  1.00  0.00    -0.011 C 
HETATM    3  C   UNL     1      66.828   7.521   4.488  1.00  0.00    -0.011 C 
HETATM    4  C   UNL     1      66.296   5.098   4.953  1.00  0.00    -0.011 C 
HETATM    5  C   UNL     1      66.415   6.844   7.328  1.00  0.00     0.042 C 
HETATM    6  C   UNL     1      65.554   7.937   5.241  1.00  0.00     0.042 C 
HETATM    7  C   UNL     1      65.024   5.529   5.700  1.00  0.00     0.042 C 
HETATM    8  C   UNL     1      68.001   7.445   5.482  1.00  0.00     0.009 C 
HETATM    9  C   UNL     1      67.470   5.038   5.946  1.00  0.00     0.009 C 
HETATM   10  C   UNL     1      66.613   6.132   3.858  1.00  0.00     0.009 C 
ENDROOT
BRANCH   1  11
HETATM   11  O   UNL     1      64.056   7.311   7.027  1.00  0.00    -0.390 OA
HETATM   12  H   UNL     1      64.154   7.129   7.975  1.00  0.00     0.210 HD
ENDBRANCH   1  11
TORSDOF 1
ENDMDL
MODEL 5
REMARK VINA RESULT:      -4.0      1.306      2.279
REMARK  1 active torsions:
REMARK  status: ('A' for Active; 'I' for Inactive)
REMARK    1  A    between atoms: C_1  and  O_11 
ROOT
HETATM    1  C   UNL     1      65.266   6.907   6.345  1.00  0.00     0.059 C 
HETATM    2  C   UNL     1      66.332   5.100   4.950  1.00  0.00    -0.011 C 
HETATM    3  C   UNL     1      67.730   6.428   6.580  1.00  0.00    -0.011 C 
HETATM    4  C   UNL     1      66.850   7.526   4.486  1.00  0.00    -0.011 C 
HETATM    5  C   UNL     1      65.063   5.522   5.707  1.00  0.00     0.042 C 
HETATM    6  C   UNL     1      66.450   6.843   7.325  1.00  0.00     0.042 C 
HETATM    7  C   UNL     1      65.578   7.937   5.245  1.00  0.00     0.042 C 
HETATM    8  C   UNL     1      67.513   5.046   5.936  1.00  0.00     0.009 C 
HETATM    9  C   UNL     1      66.636   6.139   3.856  1.00  0.00     0.009 C 
HETATM   10  C   UNL     1      68.027   7.457   5.474  1.00  0.00     0.009 C 
ENDROOT
BRANCH   1  11
HETATM   11  O   UNL     1      64.095   7.292   7.050  1.00  0.00    -0.390 OA
HETATM   12  H   UNL     1      63.311   7.003   6.558  1.00  0.00     0.210 HD
ENDBRANCH   1  11
TORSDOF 1
ENDMDL
MODEL 6
REMARK VINA RESULT:      -4.0      1.307      2.112
REMARK  1 active torsions:
REMARK  status: ('A' for Active; 'I' for Inactive)
REMARK    1  A    between atoms: C_1  and  O_11 
ROOT
HETATM    1  C   UNL     1      65.272   6.908   6.353  1.00  0.00     0.059 C 
HETATM    2  C   UNL     1      66.859   7.526   4.496  1.00  0.00    -0.011 C 
HETATM    3  C   UNL     1      66.336   5.100   4.955  1.00  0.00    -0.011 C 
HETATM    4  C   UNL     1      67.733   6.420   6.589  1.00  0.00    -0.011 C 
HETATM    5  C   UNL     1      65.585   7.936   5.251  1.00  0.00     0.042 C 
HETATM    6  C   UNL     1      65.065   5.526   5.709  1.00  0.00     0.042 C 
HETATM    7  C   UNL     1      66.454   6.835   7.335  1.00  0.00     0.042 C 
HETATM    8  C   UNL     1      66.647   6.140   3.862  1.00  0.00     0.009 C 
HETATM    9  C   UNL     1      68.033   7.453   5.489  1.00  0.00     0.009 C 
HETATM   10  C   UNL     1      67.515   5.041   5.943  1.00  0.00     0.009 C 
ENDROOT
BRANCH   1  11
HETATM   11  O   UNL     1      64.090   7.284   7.044  1.00  0.00    -0.390 OA
HETATM   12  H   UNL     1      63.555   7.864   6.480  1.00  0.00     0.210 HD
ENDBRANCH   1  11
TORSDOF 1
ENDMDL
MODEL 7
REMARK VINA RESULT:      -4.0      1.101      2.668
REMARK  1 active torsions:
REMARK  status: ('A' for Active; 'I' for Inactive)
REMARK    1  A    between atoms: C_1  and  O_11 
ROOT
HETATM    1  C   UNL     1      66.838   6.980   7.302  1.00  0.00     0.059 C 
HETATM    2  C   UNL     1      67.305   5.695   5.185  1.00  0.00    -0.011 C 
HETATM    3  C   UNL     1      66.141   7.932   5.074  1.00  0.00    -0.011 C 
HETATM    4  C   UNL     1      64.936   5.929   6.025  1.00  0.00    -0.011 C 
HETATM    5  C   UNL     1      67.830   6.046   6.586  1.00  0.00     0.042 C 
HETATM    6  C   UNL     1      66.672   8.268   6.477  1.00  0.00     0.042 C 
HETATM    7  C   UNL     1      65.472   6.280   7.423  1.00  0.00     0.042 C 
HETATM    8  C   UNL     1      67.135   6.989   4.371  1.00  0.00     0.009 C 
HETATM    9  C   UNL     1      65.938   4.999   5.319  1.00  0.00     0.009 C 
HETATM   10  C   UNL     1      64.781   7.222   5.205  1.00  0.00     0.009 C 
ENDROOT
BRANCH   1  11
HETATM   11  O   UNL     1      67.328   7.310   8.593  1.00  0.00    -0.390 OA
HETATM   12  H   UNL     1      68.196   6.897   8.725  1.00  0.00     0.210 HD
ENDBRANCH   1  11
TORSDOF 1
ENDMDL
MODEL 8
REMARK VINA RESULT:      -3.9      1.396      2.531
REMARK  1 active torsions:
REMARK  status: ('A' for Active; 'I' for Inactive)
REMARK    1  A    between atoms: C_1  and  O_11 
ROOT
HETATM    1  C   UNL     1      66.044   5.729   7.006  1.00  0.00     0.059 C 
HETATM    2  C   UNL     1      66.768   8.050   6.345  1.00  0.00    -0.011 C 
HETATM    3  C   UNL     1      64.996   6.850   5.006  1.00  0.00    -0.011 C 
HETATM    4  C   UNL     1      67.395   6.073   4.907  1.00  0.00    -0.011 C 
HETATM    5  C   UNL     1      66.508   7.101   7.525  1.00  0.00     0.042 C 
HETATM    6  C   UNL     1      64.749   5.907   6.196  1.00  0.00     0.042 C 
HETATM    7  C   UNL     1      67.131   5.133   6.094  1.00  0.00     0.042 C 
HETATM    8  C   UNL     1      65.469   8.216   5.535  1.00  0.00     0.009 C 
HETATM    9  C   UNL     1      67.853   7.442   5.439  1.00  0.00     0.009 C 
HETATM   10  C   UNL     1      66.093   6.251   4.106  1.00  0.00     0.009 C 
ENDROOT
BRANCH   1  11
HETATM   11  O   UNL     1      65.797   4.856   8.098  1.00  0.00    -0.390 OA
HETATM   12  H   UNL     1      65.689   5.376   8.910  1.00  0.00     0.210 HD
ENDBRANCH   1  11
TORSDOF 1
ENDMDL
MODEL 9
REMARK VINA RESULT:      -3.8      3.922      5.131
REMARK  1 active torsions:
REMARK  status: ('A' for Active; 'I' for Inactive)
REMARK    1  A    between atoms: C_1  and  O_11 
ROOT
HETATM    1  C   UNL     1      61.701   9.293   3.486  1.00  0.00     0.059 C 
HETATM    2  C   UNL     1      62.986   7.459   2.330  1.00  0.00    -0.011 C 
HETATM    3  C   UNL     1      61.050   6.884   3.845  1.00  0.00    -0.011 C 
HETATM    4  C   UNL     1      63.199   7.772   4.826  1.00  0.00    -0.011 C 
HETATM    5  C   UNL     1      62.450   8.893   2.202  1.00  0.00     0.042 C 
HETATM    6  C   UNL     1      60.527   8.324   3.709  1.00  0.00     0.042 C 
HETATM    7  C   UNL     1      62.661   9.206   4.686  1.00  0.00     0.042 C 
HETATM    8  C   UNL     1      61.806   6.498   2.561  1.00  0.00     0.009 C 
HETATM    9  C   UNL     1      63.941   7.384   3.535  1.00  0.00     0.009 C 
HETATM   10  C   UNL     1      62.018   6.809   5.040  1.00  0.00     0.009 C 
ENDROOT
BRANCH   1  11
HETATM   11  O   UNL     1      61.200  10.615   3.363  1.00  0.00    -0.390 OA
HETATM   12  H   UNL     1      61.487  11.143   4.125  1.00  0.00     0.210 HD
ENDBRANCH   1  11
TORSDOF 1
ENDMDL
