MODEL 1
REMARK VINA RESULT:      -4.6      0.000      0.000
REMARK  0 active torsions:
REMARK  status: ('A' for Active; 'I' for Inactive)
ROOT
HETATM    1  O   UNL     1      61.856  11.761   3.526  1.00  0.00    -0.350 OA
HETATM    2  C   UNL     1      62.369  10.539   3.877  1.00  0.00     0.075 A 
HETATM    3  C   UNL     1      62.364   9.616   2.841  1.00  0.00    -0.023 A 
HETATM    4  C   UNL     1      61.793  11.697   2.082  1.00  0.00     0.180 C 
HETATM    5  C   UNL     1      61.739  10.230   1.649  1.00  0.00     0.068 C 
HETATM    6  C   UNL     1      62.836  10.223   5.135  1.00  0.00     0.037 A 
HETATM    7  C   UNL     1      62.832   8.330   3.033  1.00  0.00     0.010 A 
HETATM    8  C   UNL     1      63.329   8.932   5.342  1.00  0.00     0.003 A 
HETATM    9  C   UNL     1      63.328   7.992   4.297  1.00  0.00     0.001 A 
ENDROOT
TORSDOF 0
ENDMDL
MODEL 2
REMARK VINA RESULT:      -4.5      1.294      3.128
REMARK  0 active torsions:
REMARK  status: ('A' for Active; 'I' for Inactive)
ROOT
HETATM    1  O   UNL     1      62.962   9.518   5.712  1.00  0.00    -0.350 OA
HETATM    2  C   UNL     1      62.585   9.880   4.444  1.00  0.00     0.075 A 
HETATM    3  C   UNL     1      62.701   8.856   3.516  1.00  0.00    -0.023 A 
HETATM    4  C   UNL     1      63.045   8.075   5.638  1.00  0.00     0.180 C 
HETATM    5  C   UNL     1      63.265   7.661   4.182  1.00  0.00     0.068 C 
HETATM    6  C   UNL     1      62.144  11.138   4.093  1.00  0.00     0.037 A 
HETATM    7  C   UNL     1      62.376   9.060   2.188  1.00  0.00     0.010 A 
HETATM    8  C   UNL     1      61.795  11.357   2.758  1.00  0.00     0.003 A 
HETATM    9  C   UNL     1      61.910  10.324   1.812  1.00  0.00     0.001 A 
ENDROOT
TORSDOF 0
ENDMDL
MODEL 3
REMARK VINA RESULT:      -4.4      0.843      2.687
REMARK  0 active torsions:
REMARK  status: ('A' for Active; 'I' for Inactive)
ROOT
HETATM    1  O   UNL     1      62.112  11.706   3.819  1.00  0.00    -0.350 OA
HETATM    2  C   UNL     1      62.171  10.549   3.085  1.00  0.00     0.075 A 
HETATM    3  C   UNL     1      62.737   9.484   3.771  1.00  0.00    -0.023 A 
HETATM    4  C   UNL     1      62.393  11.262   5.167  1.00  0.00     0.180 C 
HETATM    5  C   UNL     1      63.168   9.944   5.109  1.00  0.00     0.068 C 
HETATM    6  C   UNL     1      61.733  10.430   1.784  1.00  0.00     0.037 A 
HETATM    7  C   UNL     1      62.885   8.249   3.168  1.00  0.00     0.010 A 
HETATM    8  C   UNL     1      61.860   9.184   1.164  1.00  0.00     0.003 A 
HETATM    9  C   UNL     1      62.433   8.100   1.852  1.00  0.00     0.001 A 
ENDROOT
TORSDOF 0
ENDMDL
MODEL 4
REMARK VINA RESULT:      -4.4      1.932      2.991
REMARK  0 active torsions:
REMARK  status: ('A' for Active; 'I' for Inactive)
ROOT
HETATM    1  O   UNL     1      62.955   7.508   2.467  1.00  0.00    -0.350 OA
HETATM    2  C   UNL     1      62.608   8.788   2.814  1.00  0.00     0.075 A 
HETATM    3  C   UNL     1      62.167   9.554   1.745  1.00  0.00    -0.023 A 
HETATM    4  C   UNL     1      62.416   7.365   1.132  1.00  0.00     0.180 C 
HETATM    5  C   UNL     1      62.257   8.752   0.505  1.00  0.00     0.068 C 
HETATM    6  C   UNL     1      62.694   9.299   4.092  1.00  0.00     0.037 A 
HETATM    7  C   UNL     1      61.794  10.873   1.921  1.00  0.00     0.010 A 
HETATM    8  C   UNL     1      62.305  10.626   4.291  1.00  0.00     0.003 A 
HETATM    9  C   UNL     1      61.857  11.408   3.213  1.00  0.00     0.001 A 
ENDROOT
TORSDOF 0
ENDMDL
MODEL 5
REMARK VINA RESULT:      -4.2      1.708      3.663
REMARK  0 active torsions:
REMARK  status: ('A' for Active; 'I' for Inactive)
ROOT
HETATM    1  O   UNL     1      62.866   7.560   2.205  1.00  0.00    -0.350 OA
HETATM    2  C   UNL     1      62.519   8.860   2.470  1.00  0.00     0.075 A 
HETATM    3  C   UNL     1      62.636   9.204   3.808  1.00  0.00    -0.023 A 
HETATM    4  C   UNL     1      63.531   7.136   3.418  1.00  0.00     0.180 C 
HETATM    5  C   UNL     1      63.061   8.015   4.579  1.00  0.00     0.068 C 
HETATM    6  C   UNL     1      62.077   9.756   1.520  1.00  0.00     0.037 A 
HETATM    7  C   UNL     1      62.310  10.475   4.246  1.00  0.00     0.010 A 
HETATM    8  C   UNL     1      61.759  11.049   1.942  1.00  0.00     0.003 A 
HETATM    9  C   UNL     1      61.876  11.406   3.297  1.00  0.00     0.001 A 
ENDROOT
TORSDOF 0
ENDMDL
MODEL 6
REMARK VINA RESULT:      -4.2      1.380      2.358
REMARK  0 active torsions:
REMARK  status: ('A' for Active; 'I' for Inactive)
ROOT
HETATM    1  O   UNL     1      61.616   9.725   1.330  1.00  0.00    -0.350 OA
HETATM    2  C   UNL     1      62.057   9.929   2.612  1.00  0.00     0.075 A 
HETATM    3  C   UNL     1      62.698   8.829   3.162  1.00  0.00    -0.023 A 
HETATM    4  C   UNL     1      62.288   8.505   0.936  1.00  0.00     0.180 C 
HETATM    5  C   UNL     1      62.667   7.714   2.190  1.00  0.00     0.068 C 
HETATM    6  C   UNL     1      61.879  11.099   3.319  1.00  0.00     0.037 A 
HETATM    7  C   UNL     1      63.189   8.865   4.454  1.00  0.00     0.010 A 
HETATM    8  C   UNL     1      62.383  11.158   4.621  1.00  0.00     0.003 A 
HETATM    9  C   UNL     1      63.035  10.048   5.184  1.00  0.00     0.001 A 
ENDROOT
TORSDOF 0
ENDMDL
MODEL 7
REMARK VINA RESULT:      -4.1      1.665      3.697
REMARK  0 active torsions:
REMARK  status: ('A' for Active; 'I' for Inactive)
ROOT
HETATM    1  O   UNL     1      63.396   7.599   3.855  1.00  0.00    -0.350 OA
HETATM    2  C   UNL     1      62.836   8.640   3.161  1.00  0.00     0.075 A 
HETATM    3  C   UNL     1      62.603   9.765   3.938  1.00  0.00    -0.023 A 
HETATM    4  C   UNL     1      63.819   8.212   5.096  1.00  0.00     0.180 C 
HETATM    5  C   UNL     1      62.991   9.476   5.336  1.00  0.00     0.068 C 
HETATM    6  C   UNL     1      62.508   8.597   1.823  1.00  0.00     0.037 A 
HETATM    7  C   UNL     1      62.027  10.898   3.394  1.00  0.00     0.010 A 
HETATM    8  C   UNL     1      61.941   9.739   1.252  1.00  0.00     0.003 A 
HETATM    9  C   UNL     1      61.703  10.882   2.034  1.00  0.00     0.001 A 
ENDROOT
TORSDOF 0
ENDMDL
MODEL 8
REMARK VINA RESULT:      -4.0      2.664      4.279
REMARK  0 active torsions:
REMARK  status: ('A' for Active; 'I' for Inactive)
ROOT
HETATM    1  O   UNL     1      65.634   9.133   6.144  1.00  0.00    -0.350 OA
HETATM    2  C   UNL     1      64.783   8.645   5.186  1.00  0.00     0.075 A 
HETATM    3  C   UNL     1      65.254   7.504   4.554  1.00  0.00    -0.023 A 
HETATM    4  C   UNL     1      66.578   8.053   6.336  1.00  0.00     0.180 C 
HETATM    5  C   UNL     1      66.597   7.177   5.081  1.00  0.00     0.068 C 
HETATM    6  C   UNL     1      63.577   9.221   4.851  1.00  0.00     0.037 A 
HETATM    7  C   UNL     1      64.523   6.895   3.551  1.00  0.00     0.010 A 
HETATM    8  C   UNL     1      62.817   8.609   3.850  1.00  0.00     0.003 A 
HETATM    9  C   UNL     1      63.287   7.453   3.205  1.00  0.00     0.001 A 
ENDROOT
TORSDOF 0
ENDMDL
MODEL 9
REMARK VINA RESULT:      -4.0      1.510      2.745
REMARK  0 active torsions:
REMARK  status: ('A' for Active; 'I' for Inactive)
ROOT
HETATM    1  O   UNL     1      62.162   9.424   4.507  1.00  0.00    -0.350 OA
HETATM    2  C   UNL     1      62.242   8.866   3.257  1.00  0.00     0.075 A 
HETATM    3  C   UNL     1      62.077   9.782   2.229  1.00  0.00    -0.023 A 
HETATM    4  C   UNL     1      62.245  10.845   4.247  1.00  0.00     0.180 C 
HETATM    5  C   UNL     1      61.804  11.116   2.808  1.00  0.00     0.068 C 
HETATM    6  C   UNL     1      62.448   7.525   3.015  1.00  0.00     0.037 A 
HETATM    7  C   UNL     1      62.114   9.380   0.907  1.00  0.00     0.010 A 
HETATM    8  C   UNL     1      62.505   7.104   1.684  1.00  0.00     0.003 A 
HETATM    9  C   UNL     1      62.339   8.026   0.637  1.00  0.00     0.001 A 
ENDROOT
TORSDOF 0
ENDMDL
