MODEL 1
REMARK VINA RESULT:      -4.5      0.000      0.000
REMARK  3 active torsions:
REMARK  status: ('A' for Active; 'I' for Inactive)
REMARK    1  A    between atoms: C_1  and  C_3 
REMARK    2  A    between atoms: C_2  and  O_8 
REMARK    3  A    between atoms: C_3  and  O_9 
ROOT
HETATM    1  C   UNL     1      63.790   9.319   5.016  1.00  0.00     0.113 A 
HETATM    2  C   UNL     1      63.514  10.627   5.371  1.00  0.00     0.089 A 
HETATM    3  S   UNL     1      62.664   8.772   3.828  1.00  0.00    -0.093 SA
HETATM    4  C   UNL     1      62.393  11.171   4.683  1.00  0.00     0.045 A 
HETATM    5  C   UNL     1      61.838  10.263   3.810  1.00  0.00     0.053 A 
ENDROOT
BRANCH   1   6
HETATM    6  C   UNL     1      64.807   8.375   5.445  1.00  0.00     0.302 C 
HETATM    7  O   UNL     1      64.806   7.169   5.197  1.00  0.00    -0.259 OA
BRANCH   6   8
HETATM    8  O   UNL     1      65.791   8.981   6.171  1.00  0.00    -0.322 OA
HETATM    9  C   UNL     1      66.797   8.072   6.623  1.00  0.00     0.213 C 
ENDBRANCH   6   8
ENDBRANCH   1   6
BRANCH   2  10
HETATM   10  O   UNL     1      64.239  11.306   6.279  1.00  0.00    -0.359 OA
HETATM   11  H   UNL     1      65.054  10.958   6.584  1.00  0.00     0.217 HD
ENDBRANCH   2  10
TORSDOF 3
ENDMDL
MODEL 2
REMARK VINA RESULT:      -4.3      1.601      1.931
REMARK  3 active torsions:
REMARK  status: ('A' for Active; 'I' for Inactive)
REMARK    1  A    between atoms: C_1  and  C_3 
REMARK    2  A    between atoms: C_2  and  O_8 
REMARK    3  A    between atoms: C_3  and  O_9 
ROOT
HETATM    1  C   UNL     1      62.735   9.646   4.175  1.00  0.00     0.113 A 
HETATM    2  C   UNL     1      62.224  10.897   3.881  1.00  0.00     0.089 A 
HETATM    3  S   UNL     1      62.616   8.613   2.797  1.00  0.00    -0.093 SA
HETATM    4  C   UNL     1      61.737  11.006   2.547  1.00  0.00     0.045 A 
HETATM    5  C   UNL     1      61.892   9.830   1.848  1.00  0.00     0.053 A 
ENDROOT
BRANCH   1   6
HETATM    6  C   UNL     1      63.324   9.079   5.375  1.00  0.00     0.302 C 
HETATM    7  O   UNL     1      62.727   8.385   6.199  1.00  0.00    -0.259 OA
BRANCH   6   8
HETATM    8  O   UNL     1      64.643   9.405   5.498  1.00  0.00    -0.322 OA
HETATM    9  C   UNL     1      65.507   8.267   5.489  1.00  0.00     0.213 C 
ENDBRANCH   6   8
ENDBRANCH   1   6
BRANCH   2  10
HETATM   10  O   UNL     1      62.195  11.903   4.775  1.00  0.00    -0.359 OA
HETATM   11  H   UNL     1      62.884  12.538   4.789  1.00  0.00     0.217 HD
ENDBRANCH   2  10
TORSDOF 3
ENDMDL
MODEL 3
REMARK VINA RESULT:      -3.9      1.750      3.937
REMARK  3 active torsions:
REMARK  status: ('A' for Active; 'I' for Inactive)
REMARK    1  A    between atoms: C_1  and  C_3 
REMARK    2  A    between atoms: C_2  and  O_8 
REMARK    3  A    between atoms: C_3  and  O_9 
ROOT
HETATM    1  C   UNL     1      63.280   9.176   4.477  1.00  0.00     0.113 A 
HETATM    2  C   UNL     1      64.490   8.718   4.965  1.00  0.00     0.089 A 
HETATM    3  S   UNL     1      62.572   7.999   3.432  1.00  0.00    -0.093 SA
HETATM    4  C   UNL     1      64.835   7.423   4.484  1.00  0.00     0.045 A 
HETATM    5  C   UNL     1      63.872   6.917   3.640  1.00  0.00     0.053 A 
ENDROOT
BRANCH   1   6
HETATM    6  C   UNL     1      62.538  10.409   4.680  1.00  0.00     0.302 C 
HETATM    7  O   UNL     1      62.775  11.245   5.553  1.00  0.00    -0.259 OA
BRANCH   6   8
HETATM    8  O   UNL     1      61.522  10.545   3.780  1.00  0.00    -0.322 OA
HETATM    9  C   UNL     1      61.809  11.492   2.749  1.00  0.00     0.213 C 
ENDBRANCH   6   8
ENDBRANCH   1   6
BRANCH   2  10
HETATM   10  O   UNL     1      65.257   9.435   5.807  1.00  0.00    -0.359 OA
HETATM   11  H   UNL     1      65.764  10.153   5.483  1.00  0.00     0.217 HD
ENDBRANCH   2  10
TORSDOF 3
ENDMDL
MODEL 4
REMARK VINA RESULT:      -3.8      1.932      4.399
REMARK  3 active torsions:
REMARK  status: ('A' for Active; 'I' for Inactive)
REMARK    1  A    between atoms: C_1  and  C_3 
REMARK    2  A    between atoms: C_2  and  O_8 
REMARK    3  A    between atoms: C_3  and  O_9 
ROOT
HETATM    1  C   UNL     1      65.739   7.939   5.214  1.00  0.00     0.113 A 
HETATM    2  C   UNL     1      66.800   7.957   6.101  1.00  0.00     0.089 A 
HETATM    3  S   UNL     1      65.887   6.603   4.132  1.00  0.00    -0.093 SA
HETATM    4  C   UNL     1      67.724   6.894   5.893  1.00  0.00     0.045 A 
HETATM    5  C   UNL     1      67.343   6.082   4.849  1.00  0.00     0.053 A 
ENDROOT
BRANCH   1   6
HETATM    6  C   UNL     1      64.583   8.801   5.043  1.00  0.00     0.302 C 
HETATM    7  O   UNL     1      64.367   9.835   5.677  1.00  0.00    -0.259 OA
BRANCH   6   8
HETATM    8  O   UNL     1      63.736   8.332   4.081  1.00  0.00    -0.322 OA
HETATM    9  C   UNL     1      62.715   9.267   3.727  1.00  0.00     0.213 C 
ENDBRANCH   6   8
ENDBRANCH   1   6
BRANCH   2  10
HETATM   10  O   UNL     1      66.936   8.893   7.060  1.00  0.00    -0.359 OA
HETATM   11  H   UNL     1      66.213   9.098   7.619  1.00  0.00     0.217 HD
ENDBRANCH   2  10
TORSDOF 3
ENDMDL
MODEL 5
REMARK VINA RESULT:      -3.6      2.147      2.580
REMARK  3 active torsions:
REMARK  status: ('A' for Active; 'I' for Inactive)
REMARK    1  A    between atoms: C_1  and  C_3 
REMARK    2  A    between atoms: C_2  and  O_8 
REMARK    3  A    between atoms: C_3  and  O_9 
ROOT
HETATM    1  C   UNL     1      65.573   7.910   5.057  1.00  0.00     0.113 A 
HETATM    2  C   UNL     1      64.512   8.795   5.005  1.00  0.00     0.089 A 
HETATM    3  S   UNL     1      65.328   6.617   3.941  1.00  0.00    -0.093 SA
HETATM    4  C   UNL     1      63.510   8.416   4.068  1.00  0.00     0.045 A 
HETATM    5  C   UNL     1      63.832   7.246   3.419  1.00  0.00     0.053 A 
ENDROOT
BRANCH   1   6
HETATM    6  C   UNL     1      66.794   7.880   5.843  1.00  0.00     0.302 C 
HETATM    7  O   UNL     1      67.930   7.744   5.387  1.00  0.00    -0.259 OA
BRANCH   6   8
HETATM    8  O   UNL     1      66.544   8.020   7.178  1.00  0.00    -0.322 OA
HETATM    9  C   UNL     1      66.166   6.796   7.810  1.00  0.00     0.213 C 
ENDBRANCH   6   8
ENDBRANCH   1   6
BRANCH   2  10
HETATM   10  O   UNL     1      64.444   9.901   5.770  1.00  0.00    -0.359 OA
HETATM   11  H   UNL     1      65.150  10.518   5.765  1.00  0.00     0.217 HD
ENDBRANCH   2  10
TORSDOF 3
ENDMDL
MODEL 6
REMARK VINA RESULT:      -3.6      3.100      4.381
REMARK  3 active torsions:
REMARK  status: ('A' for Active; 'I' for Inactive)
REMARK    1  A    between atoms: C_1  and  C_3 
REMARK    2  A    between atoms: C_2  and  O_8 
REMARK    3  A    between atoms: C_3  and  O_9 
ROOT
HETATM    1  C   UNL     1      62.456   9.447   3.164  1.00  0.00     0.113 A 
HETATM    2  C   UNL     1      61.985  10.719   3.434  1.00  0.00     0.089 A 
HETATM    3  S   UNL     1      63.361   8.846   4.505  1.00  0.00    -0.093 SA
HETATM    4  C   UNL     1      62.365  11.196   4.721  1.00  0.00     0.045 A 
HETATM    5  C   UNL     1      63.117  10.271   5.409  1.00  0.00     0.053 A 
ENDROOT
BRANCH   1   6
HETATM    6  C   UNL     1      62.329   8.573   2.010  1.00  0.00     0.302 C 
HETATM    7  O   UNL     1      62.883   7.481   1.882  1.00  0.00    -0.259 OA
BRANCH   6   8
HETATM    8  O   UNL     1      61.510   9.105   1.057  1.00  0.00    -0.322 OA
HETATM    9  C   UNL     1      60.327   8.334   0.839  1.00  0.00     0.213 C 
ENDBRANCH   6   8
ENDBRANCH   1   6
BRANCH   2  10
HETATM   10  O   UNL     1      61.244  11.425   2.561  1.00  0.00    -0.359 OA
HETATM   11  H   UNL     1      60.328  11.249   2.474  1.00  0.00     0.217 HD
ENDBRANCH   2  10
TORSDOF 3
ENDMDL
MODEL 7
REMARK VINA RESULT:      -3.5      2.074      3.126
REMARK  3 active torsions:
REMARK  status: ('A' for Active; 'I' for Inactive)
REMARK    1  A    between atoms: C_1  and  C_3 
REMARK    2  A    between atoms: C_2  and  O_8 
REMARK    3  A    between atoms: C_3  and  O_9 
ROOT
HETATM    1  C   UNL     1      62.996   9.063   3.899  1.00  0.00     0.113 A 
HETATM    2  C   UNL     1      63.045   8.213   2.810  1.00  0.00     0.089 A 
HETATM    3  S   UNL     1      62.023  10.443   3.538  1.00  0.00    -0.093 SA
HETATM    4  C   UNL     1      62.300   8.688   1.693  1.00  0.00     0.045 A 
HETATM    5  C   UNL     1      61.692   9.894   1.959  1.00  0.00     0.053 A 
ENDROOT
BRANCH   1   6
HETATM    6  C   UNL     1      63.588   9.003   5.225  1.00  0.00     0.302 C 
HETATM    7  O   UNL     1      64.673   9.492   5.541  1.00  0.00    -0.259 OA
BRANCH   6   8
HETATM    8  O   UNL     1      62.794   8.328   6.106  1.00  0.00    -0.322 OA
HETATM    9  C   UNL     1      63.227   6.986   6.337  1.00  0.00     0.213 C 
ENDBRANCH   6   8
ENDBRANCH   1   6
BRANCH   2  10
HETATM   10  O   UNL     1      63.732   7.056   2.816  1.00  0.00    -0.359 OA
HETATM   11  H   UNL     1      64.393   6.907   3.464  1.00  0.00     0.217 HD
ENDBRANCH   2  10
TORSDOF 3
ENDMDL
MODEL 8
REMARK VINA RESULT:      -3.5      1.610      2.089
REMARK  3 active torsions:
REMARK  status: ('A' for Active; 'I' for Inactive)
REMARK    1  A    between atoms: C_1  and  C_3 
REMARK    2  A    between atoms: C_2  and  O_8 
REMARK    3  A    between atoms: C_3  and  O_9 
ROOT
HETATM    1  C   UNL     1      63.085   8.433   5.170  1.00  0.00     0.113 A 
HETATM    2  C   UNL     1      63.266   9.804   5.163  1.00  0.00     0.089 A 
HETATM    3  S   UNL     1      61.824   7.991   4.079  1.00  0.00    -0.093 SA
HETATM    4  C   UNL     1      62.380  10.483   4.279  1.00  0.00     0.045 A 
HETATM    5  C   UNL     1      61.541   9.609   3.625  1.00  0.00     0.053 A 
ENDROOT
BRANCH   1   6
HETATM    6  C   UNL     1      63.737   7.357   5.896  1.00  0.00     0.302 C 
HETATM    7  O   UNL     1      64.087   7.406   7.076  1.00  0.00    -0.259 OA
BRANCH   6   8
HETATM    8  O   UNL     1      63.926   6.256   5.112  1.00  0.00    -0.322 OA
HETATM    9  C   UNL     1      63.694   5.027   5.804  1.00  0.00     0.213 C 
ENDBRANCH   6   8
ENDBRANCH   1   6
BRANCH   2  10
HETATM   10  O   UNL     1      64.190  10.424   5.921  1.00  0.00    -0.359 OA
HETATM   11  H   UNL     1      64.817  10.995   5.522  1.00  0.00     0.217 HD
ENDBRANCH   2  10
TORSDOF 3
ENDMDL
MODEL 9
REMARK VINA RESULT:      -3.4      3.241      4.466
REMARK  3 active torsions:
REMARK  status: ('A' for Active; 'I' for Inactive)
REMARK    1  A    between atoms: C_1  and  C_3 
REMARK    2  A    between atoms: C_2  and  O_8 
REMARK    3  A    between atoms: C_3  and  O_9 
ROOT
HETATM    1  C   UNL     1      65.196   6.957   5.974  1.00  0.00     0.113 A 
HETATM    2  C   UNL     1      66.034   8.055   5.919  1.00  0.00     0.089 A 
HETATM    3  S   UNL     1      66.080   5.512   5.643  1.00  0.00    -0.093 SA
HETATM    4  C   UNL     1      67.381   7.717   5.604  1.00  0.00     0.045 A 
HETATM    5  C   UNL     1      67.542   6.362   5.431  1.00  0.00     0.053 A 
ENDROOT
BRANCH   1   6
HETATM    6  C   UNL     1      63.777   6.813   6.249  1.00  0.00     0.302 C 
HETATM    7  O   UNL     1      63.095   7.605   6.901  1.00  0.00    -0.259 OA
BRANCH   6   8
HETATM    8  O   UNL     1      63.264   5.677   5.694  1.00  0.00    -0.322 OA
HETATM    9  C   UNL     1      62.064   5.233   6.331  1.00  0.00     0.213 C 
ENDBRANCH   6   8
ENDBRANCH   1   6
BRANCH   2  10
HETATM   10  O   UNL     1      65.608   9.313   6.141  1.00  0.00    -0.359 OA
HETATM   11  H   UNL     1      66.151   9.915   6.610  1.00  0.00     0.217 HD
ENDBRANCH   2  10
TORSDOF 3
ENDMDL
