MODEL 1
REMARK VINA RESULT:      -6.4      0.000      0.000
REMARK  2 active torsions:
REMARK  status: ('A' for Active; 'I' for Inactive)
REMARK       I    between atoms: C_1  and  N_4 
REMARK    1  A    between atoms: C_1  and  C_3 
REMARK    2  A    between atoms: N_4  and  C_10 
ROOT
HETATM    1  N   UNL     1      64.399   7.200   3.751  1.00  0.00    -0.058 N 
HETATM    2  C   UNL     1      64.431   8.080   4.960  1.00  0.00     0.281 C 
HETATM    3  C   UNL     1      63.172   8.928   5.237  1.00  0.00     0.082 C 
HETATM    4  C   UNL     1      62.685   9.562   3.964  1.00  0.00    -0.048 A 
HETATM    5  C   UNL     1      63.166   7.334   2.961  1.00  0.00     0.272 C 
HETATM    6  C   UNL     1      62.709   8.763   2.810  1.00  0.00    -0.026 A 
HETATM    7  C   UNL     1      62.189  10.867   3.912  1.00  0.00     0.008 A 
HETATM    8  C   UNL     1      62.241   9.285   1.601  1.00  0.00     0.009 A 
HETATM    9  C   UNL     1      61.738  11.384   2.698  1.00  0.00     0.001 A 
HETATM   10  C   UNL     1      61.766  10.596   1.546  1.00  0.00     0.001 A 
HETATM   11  H   UNL     1      64.483   6.230   4.055  1.00  0.00     0.278 HD
HETATM   12  H   UNL     1      65.173   7.485   3.151  1.00  0.00     0.278 HD
ENDROOT
BRANCH   2  13
HETATM   13  C   UNL     1      64.776   7.233   6.201  1.00  0.00     0.249 C 
HETATM   14  N   UNL     1      65.973   6.545   6.085  1.00  0.00    -0.351 N 
HETATM   15  H   UNL     1      66.512   6.699   5.276  1.00  0.00     0.163 HD
HETATM   16  O   UNL     1      64.047   7.164   7.187  1.00  0.00    -0.271 OA
BRANCH  14  17
HETATM   17  C   UNL     1      66.497   5.602   7.085  1.00  0.00     0.022 C 
HETATM   18  C   UNL     1      65.512   4.439   7.292  1.00  0.00     0.037 C 
HETATM   19  C   UNL     1      67.825   5.024   6.565  1.00  0.00     0.037 C 
HETATM   20  C   UNL     1      66.775   6.298   8.428  1.00  0.00     0.037 C 
ENDBRANCH  14  17
ENDBRANCH   2  13
TORSDOF 2
ENDMDL
MODEL 2
REMARK VINA RESULT:      -6.1      1.195      1.975
REMARK  2 active torsions:
REMARK  status: ('A' for Active; 'I' for Inactive)
REMARK       I    between atoms: C_1  and  N_4 
REMARK    1  A    between atoms: C_1  and  C_3 
REMARK    2  A    between atoms: N_4  and  C_10 
ROOT
HETATM    1  N   UNL     1      63.229   8.665   6.036  1.00  0.00    -0.058 N 
HETATM    2  C   UNL     1      63.677   7.348   5.487  1.00  0.00     0.281 C 
HETATM    3  C   UNL     1      64.160   7.332   4.022  1.00  0.00     0.082 C 
HETATM    4  C   UNL     1      63.222   8.129   3.159  1.00  0.00    -0.048 A 
HETATM    5  C   UNL     1      63.261   9.752   5.046  1.00  0.00     0.272 C 
HETATM    6  C   UNL     1      62.747   9.338   3.690  1.00  0.00    -0.026 A 
HETATM    7  C   UNL     1      62.857   7.729   1.871  1.00  0.00     0.008 A 
HETATM    8  C   UNL     1      61.896  10.140   2.926  1.00  0.00     0.009 A 
HETATM    9  C   UNL     1      61.996   8.529   1.121  1.00  0.00     0.001 A 
HETATM   10  C   UNL     1      61.515   9.729   1.647  1.00  0.00     0.001 A 
HETATM   11  H   UNL     1      63.842   8.917   6.811  1.00  0.00     0.278 HD
HETATM   12  H   UNL     1      62.259   8.555   6.330  1.00  0.00     0.278 HD
ENDROOT
BRANCH   2  13
HETATM   13  C   UNL     1      64.764   6.753   6.405  1.00  0.00     0.249 C 
HETATM   14  N   UNL     1      65.631   5.895   5.749  1.00  0.00    -0.351 N 
HETATM   15  H   UNL     1      65.523   5.791   4.776  1.00  0.00     0.163 HD
HETATM   16  O   UNL     1      64.837   7.006   7.604  1.00  0.00    -0.271 OA
BRANCH  14  17
HETATM   17  C   UNL     1      66.705   5.130   6.402  1.00  0.00     0.022 C 
HETATM   18  C   UNL     1      66.123   4.219   7.496  1.00  0.00     0.037 C 
HETATM   19  C   UNL     1      67.386   4.243   5.345  1.00  0.00     0.037 C 
HETATM   20  C   UNL     1      67.774   6.057   7.005  1.00  0.00     0.037 C 
ENDBRANCH  14  17
ENDBRANCH   2  13
TORSDOF 2
ENDMDL
MODEL 3
REMARK VINA RESULT:      -5.6      1.887      6.377
REMARK  2 active torsions:
REMARK  status: ('A' for Active; 'I' for Inactive)
REMARK       I    between atoms: C_1  and  N_4 
REMARK    1  A    between atoms: C_1  and  C_3 
REMARK    2  A    between atoms: N_4  and  C_10 
ROOT
HETATM    1  N   UNL     1      63.001   8.197   6.215  1.00  0.00    -0.058 N 
HETATM    2  C   UNL     1      63.696   8.952   5.127  1.00  0.00     0.281 C 
HETATM    3  C   UNL     1      64.815   8.207   4.368  1.00  0.00     0.082 C 
HETATM    4  C   UNL     1      65.698   7.473   5.338  1.00  0.00    -0.048 A 
HETATM    5  C   UNL     1      63.552   6.852   6.438  1.00  0.00     0.272 C 
HETATM    6  C   UNL     1      65.058   6.812   6.399  1.00  0.00    -0.026 A 
HETATM    7  C   UNL     1      67.085   7.401   5.191  1.00  0.00     0.008 A 
HETATM    8  C   UNL     1      65.821   6.085   7.317  1.00  0.00     0.009 A 
HETATM    9  C   UNL     1      67.839   6.685   6.121  1.00  0.00     0.001 A 
HETATM   10  C   UNL     1      67.209   6.032   7.181  1.00  0.00     0.001 A 
HETATM   11  H   UNL     1      62.016   8.105   5.965  1.00  0.00     0.278 HD
HETATM   12  H   UNL     1      63.133   8.723   7.078  1.00  0.00     0.278 HD
ENDROOT
BRANCH   2  13
HETATM   13  C   UNL     1      62.651   9.488   4.127  1.00  0.00     0.249 C 
HETATM   14  N   UNL     1      62.712   8.879   2.885  1.00  0.00    -0.351 N 
HETATM   15  H   UNL     1      63.351   8.138   2.770  1.00  0.00     0.163 HD
HETATM   16  O   UNL     1      61.858  10.383   4.407  1.00  0.00    -0.271 OA
BRANCH  14  17
HETATM   17  C   UNL     1      61.889   9.258   1.726  1.00  0.00     0.022 C 
HETATM   18  C   UNL     1      61.788  10.789   1.618  1.00  0.00     0.037 C 
HETATM   19  C   UNL     1      62.565   8.726   0.451  1.00  0.00     0.037 C 
HETATM   20  C   UNL     1      60.480   8.645   1.808  1.00  0.00     0.037 C 
ENDBRANCH  14  17
ENDBRANCH   2  13
TORSDOF 2
ENDMDL
MODEL 4
REMARK VINA RESULT:      -5.3      2.040      3.007
REMARK  2 active torsions:
REMARK  status: ('A' for Active; 'I' for Inactive)
REMARK       I    between atoms: C_1  and  N_4 
REMARK    1  A    between atoms: C_1  and  C_3 
REMARK    2  A    between atoms: N_4  and  C_10 
ROOT
HETATM    1  N   UNL     1      62.766   9.433   4.027  1.00  0.00    -0.058 N 
HETATM    2  C   UNL     1      63.413   8.098   4.216  1.00  0.00     0.281 C 
HETATM    3  C   UNL     1      63.665   7.260   2.945  1.00  0.00     0.082 C 
HETATM    4  C   UNL     1      62.454   7.293   2.055  1.00  0.00    -0.048 A 
HETATM    5  C   UNL     1      62.404   9.715   2.630  1.00  0.00     0.272 C 
HETATM    6  C   UNL     1      61.802   8.529   1.920  1.00  0.00    -0.026 A 
HETATM    7  C   UNL     1      62.001   6.173   1.354  1.00  0.00     0.008 A 
HETATM    8  C   UNL     1      60.688   8.633   1.083  1.00  0.00     0.009 A 
HETATM    9  C   UNL     1      60.880   6.282   0.532  1.00  0.00     0.001 A 
HETATM   10  C   UNL     1      60.224   7.507   0.399  1.00  0.00     0.001 A 
HETATM   11  H   UNL     1      63.414  10.153   4.344  1.00  0.00     0.278 HD
HETATM   12  H   UNL     1      61.901   9.427   4.566  1.00  0.00     0.278 HD
ENDROOT
BRANCH   2  13
HETATM   13  C   UNL     1      64.731   8.274   4.998  1.00  0.00     0.249 C 
HETATM   14  N   UNL     1      65.548   7.156   4.961  1.00  0.00    -0.351 N 
HETATM   15  H   UNL     1      65.257   6.395   4.407  1.00  0.00     0.163 HD
HETATM   16  O   UNL     1      65.014   9.301   5.607  1.00  0.00    -0.271 OA
BRANCH  14  17
HETATM   17  C   UNL     1      66.819   7.024   5.689  1.00  0.00     0.022 C 
HETATM   18  C   UNL     1      66.623   7.365   7.176  1.00  0.00     0.037 C 
HETATM   19  C   UNL     1      67.293   5.564   5.587  1.00  0.00     0.037 C 
HETATM   20  C   UNL     1      67.913   7.922   5.085  1.00  0.00     0.037 C 
ENDBRANCH  14  17
ENDBRANCH   2  13
TORSDOF 2
ENDMDL
MODEL 5
REMARK VINA RESULT:      -4.9      6.045      7.506
REMARK  2 active torsions:
REMARK  status: ('A' for Active; 'I' for Inactive)
REMARK       I    between atoms: C_1  and  N_4 
REMARK    1  A    between atoms: C_1  and  C_3 
REMARK    2  A    between atoms: N_4  and  C_10 
ROOT
HETATM    1  N   UNL     1      57.351   6.979   2.484  1.00  0.00    -0.058 N 
HETATM    2  C   UNL     1      58.211   7.572   3.554  1.00  0.00     0.281 C 
HETATM    3  C   UNL     1      58.142   6.913   4.948  1.00  0.00     0.082 C 
HETATM    4  C   UNL     1      56.712   6.637   5.320  1.00  0.00    -0.048 A 
HETATM    5  C   UNL     1      56.505   5.874   2.959  1.00  0.00     0.272 C 
HETATM    6  C   UNL     1      55.880   6.138   4.305  1.00  0.00    -0.026 A 
HETATM    7  C   UNL     1      56.218   6.821   6.614  1.00  0.00     0.008 A 
HETATM    8  C   UNL     1      54.547   5.832   4.594  1.00  0.00     0.009 A 
HETATM    9  C   UNL     1      54.884   6.527   6.889  1.00  0.00     0.001 A 
HETATM   10  C   UNL     1      54.050   6.037   5.882  1.00  0.00     0.001 A 
HETATM   11  H   UNL     1      57.956   6.627   1.743  1.00  0.00     0.278 HD
HETATM   12  H   UNL     1      56.727   7.716   2.157  1.00  0.00     0.278 HD
ENDROOT
BRANCH   2  13
HETATM   13  C   UNL     1      59.674   7.620   3.069  1.00  0.00     0.249 C 
HETATM   14  N   UNL     1      60.308   8.820   3.344  1.00  0.00    -0.351 N 
HETATM   15  H   UNL     1      59.810   9.492   3.863  1.00  0.00     0.163 HD
HETATM   16  O   UNL     1      60.212   6.687   2.479  1.00  0.00    -0.271 OA
BRANCH  14  17
HETATM   17  C   UNL     1      61.674   9.161   2.918  1.00  0.00     0.022 C 
HETATM   18  C   UNL     1      61.788   9.102   1.385  1.00  0.00     0.037 C 
HETATM   19  C   UNL     1      61.983  10.599   3.370  1.00  0.00     0.037 C 
HETATM   20  C   UNL     1      62.717   8.227   3.557  1.00  0.00     0.037 C 
ENDBRANCH  14  17
ENDBRANCH   2  13
TORSDOF 2
ENDMDL
MODEL 6
REMARK VINA RESULT:      -4.9      1.851      2.467
REMARK  2 active torsions:
REMARK  status: ('A' for Active; 'I' for Inactive)
REMARK       I    between atoms: C_1  and  N_4 
REMARK    1  A    between atoms: C_1  and  C_3 
REMARK    2  A    between atoms: N_4  and  C_10 
ROOT
HETATM    1  N   UNL     1      61.783   6.431   4.969  1.00  0.00    -0.058 N 
HETATM    2  C   UNL     1      63.134   6.905   4.537  1.00  0.00     0.281 C 
HETATM    3  C   UNL     1      63.181   8.177   3.665  1.00  0.00     0.082 C 
HETATM    4  C   UNL     1      62.125   8.111   2.597  1.00  0.00    -0.048 A 
HETATM    5  C   UNL     1      60.680   7.238   4.426  1.00  0.00     0.272 C 
HETATM    6  C   UNL     1      60.871   7.610   2.977  1.00  0.00    -0.026 A 
HETATM    7  C   UNL     1      62.343   8.558   1.291  1.00  0.00     0.008 A 
HETATM    8  C   UNL     1      59.838   7.552   2.038  1.00  0.00     0.009 A 
HETATM    9  C   UNL     1      61.311   8.483   0.357  1.00  0.00     0.001 A 
HETATM   10  C   UNL     1      60.063   7.979   0.729  1.00  0.00     0.001 A 
HETATM   11  H   UNL     1      61.739   6.467   5.987  1.00  0.00     0.278 HD
HETATM   12  H   UNL     1      61.667   5.484   4.610  1.00  0.00     0.278 HD
ENDROOT
BRANCH   2  13
HETATM   13  C   UNL     1      64.034   7.084   5.776  1.00  0.00     0.249 C 
HETATM   14  N   UNL     1      65.369   6.807   5.534  1.00  0.00    -0.351 N 
HETATM   15  H   UNL     1      65.631   6.589   4.610  1.00  0.00     0.163 HD
HETATM   16  O   UNL     1      63.600   7.422   6.874  1.00  0.00    -0.271 OA
BRANCH  14  17
HETATM   17  C   UNL     1      66.426   6.819   6.557  1.00  0.00     0.022 C 
HETATM   18  C   UNL     1      67.671   6.071   6.050  1.00  0.00     0.037 C 
HETATM   19  C   UNL     1      66.820   8.279   6.838  1.00  0.00     0.037 C 
HETATM   20  C   UNL     1      65.941   6.195   7.877  1.00  0.00     0.037 C 
ENDBRANCH  14  17
ENDBRANCH   2  13
TORSDOF 2
ENDMDL
MODEL 7
REMARK VINA RESULT:      -4.8      1.624      2.562
REMARK  2 active torsions:
REMARK  status: ('A' for Active; 'I' for Inactive)
REMARK       I    between atoms: C_1  and  N_4 
REMARK    1  A    between atoms: C_1  and  C_3 
REMARK    2  A    between atoms: N_4  and  C_10 
ROOT
HETATM    1  N   UNL     1      63.163   8.380   6.004  1.00  0.00    -0.058 N 
HETATM    2  C   UNL     1      63.257   7.254   5.026  1.00  0.00     0.281 C 
HETATM    3  C   UNL     1      63.652   7.618   3.579  1.00  0.00     0.082 C 
HETATM    4  C   UNL     1      62.892   8.833   3.125  1.00  0.00    -0.048 A 
HETATM    5  C   UNL     1      63.406   9.700   5.402  1.00  0.00     0.272 C 
HETATM    6  C   UNL     1      62.745   9.872   4.058  1.00  0.00    -0.026 A 
HETATM    7  C   UNL     1      62.381   8.964   1.832  1.00  0.00     0.008 A 
HETATM    8  C   UNL     1      62.074  11.040   3.688  1.00  0.00     0.009 A 
HETATM    9  C   UNL     1      61.701  10.128   1.476  1.00  0.00     0.001 A 
HETATM   10  C   UNL     1      61.546  11.162   2.402  1.00  0.00     0.001 A 
HETATM   11  H   UNL     1      63.854   8.229   6.738  1.00  0.00     0.278 HD
HETATM   12  H   UNL     1      62.210   8.386   6.366  1.00  0.00     0.278 HD
ENDROOT
BRANCH   2  13
HETATM   13  C   UNL     1      64.214   6.176   5.575  1.00  0.00     0.249 C 
HETATM   14  N   UNL     1      63.578   4.991   5.909  1.00  0.00    -0.351 N 
HETATM   15  H   UNL     1      62.616   4.919   5.714  1.00  0.00     0.163 HD
HETATM   16  O   UNL     1      65.419   6.364   5.718  1.00  0.00    -0.271 OA
BRANCH  14  17
HETATM   17  C   UNL     1      64.239   3.833   6.530  1.00  0.00     0.022 C 
HETATM   18  C   UNL     1      64.944   2.981   5.461  1.00  0.00     0.037 C 
HETATM   19  C   UNL     1      65.302   4.348   7.517  1.00  0.00     0.037 C 
HETATM   20  C   UNL     1      63.241   2.967   7.317  1.00  0.00     0.037 C 
ENDBRANCH  14  17
ENDBRANCH   2  13
TORSDOF 2
ENDMDL
MODEL 8
REMARK VINA RESULT:      -4.8      2.961      3.854
REMARK  2 active torsions:
REMARK  status: ('A' for Active; 'I' for Inactive)
REMARK       I    between atoms: C_1  and  N_4 
REMARK    1  A    between atoms: C_1  and  C_3 
REMARK    2  A    between atoms: N_4  and  C_10 
ROOT
HETATM    1  N   UNL     1      62.859   8.209   4.197  1.00  0.00    -0.058 N 
HETATM    2  C   UNL     1      63.337   7.948   5.590  1.00  0.00     0.281 C 
HETATM    3  C   UNL     1      62.864   6.639   6.255  1.00  0.00     0.082 C 
HETATM    4  C   UNL     1      61.396   6.433   6.007  1.00  0.00    -0.048 A 
HETATM    5  C   UNL     1      61.936   7.180   3.694  1.00  0.00     0.272 C 
HETATM    6  C   UNL     1      60.925   6.734   4.719  1.00  0.00    -0.026 A 
HETATM    7  C   UNL     1      60.529   5.930   6.979  1.00  0.00     0.008 A 
HETATM    8  C   UNL     1      59.575   6.535   4.416  1.00  0.00     0.009 A 
HETATM    9  C   UNL     1      59.181   5.748   6.672  1.00  0.00     0.001 A 
HETATM   10  C   UNL     1      58.706   6.053   5.395  1.00  0.00     0.001 A 
HETATM   11  H   UNL     1      63.669   8.246   3.579  1.00  0.00     0.278 HD
HETATM   12  H   UNL     1      62.345   9.090   4.215  1.00  0.00     0.278 HD
ENDROOT
BRANCH   2  13
HETATM   13  C   UNL     1      64.877   8.028   5.626  1.00  0.00     0.249 C 
HETATM   14  N   UNL     1      65.500   6.835   5.300  1.00  0.00    -0.351 N 
HETATM   15  H   UNL     1      64.929   6.082   5.022  1.00  0.00     0.163 HD
HETATM   16  O   UNL     1      65.486   9.050   5.932  1.00  0.00    -0.271 OA
BRANCH  14  17
HETATM   17  C   UNL     1      66.953   6.611   5.338  1.00  0.00     0.022 C 
HETATM   18  C   UNL     1      67.693   7.787   4.676  1.00  0.00     0.037 C 
HETATM   19  C   UNL     1      67.398   6.527   6.809  1.00  0.00     0.037 C 
HETATM   20  C   UNL     1      67.341   5.292   4.648  1.00  0.00     0.037 C 
ENDBRANCH  14  17
ENDBRANCH   2  13
TORSDOF 2
ENDMDL
MODEL 9
REMARK VINA RESULT:      -4.7      2.283      3.240
REMARK  2 active torsions:
REMARK  status: ('A' for Active; 'I' for Inactive)
REMARK       I    between atoms: C_1  and  N_4 
REMARK    1  A    between atoms: C_1  and  C_3 
REMARK    2  A    between atoms: N_4  and  C_10 
ROOT
HETATM    1  N   UNL     1      62.554   7.106   4.979  1.00  0.00    -0.058 N 
HETATM    2  C   UNL     1      62.429   6.589   3.581  1.00  0.00     0.281 C 
HETATM    3  C   UNL     1      62.977   7.490   2.454  1.00  0.00     0.082 C 
HETATM    4  C   UNL     1      62.552   8.915   2.678  1.00  0.00    -0.048 A 
HETATM    5  C   UNL     1      63.136   8.454   5.055  1.00  0.00     0.272 C 
HETATM    6  C   UNL     1      62.607   9.391   3.998  1.00  0.00    -0.026 A 
HETATM    7  C   UNL     1      62.157   9.758   1.637  1.00  0.00     0.008 A 
HETATM    8  C   UNL     1      62.255  10.716   4.268  1.00  0.00     0.009 A 
HETATM    9  C   UNL     1      61.794  11.074   1.918  1.00  0.00     0.001 A 
HETATM   10  C   UNL     1      61.840  11.551   3.229  1.00  0.00     0.001 A 
HETATM   11  H   UNL     1      63.150   6.468   5.506  1.00  0.00     0.278 HD
HETATM   12  H   UNL     1      61.612   7.163   5.364  1.00  0.00     0.278 HD
ENDROOT
BRANCH   2  13
HETATM   13  C   UNL     1      63.071   5.190   3.492  1.00  0.00     0.249 C 
HETATM   14  N   UNL     1      63.941   4.914   4.534  1.00  0.00    -0.351 N 
HETATM   15  H   UNL     1      64.023   5.585   5.251  1.00  0.00     0.163 HD
HETATM   16  O   UNL     1      62.844   4.408   2.573  1.00  0.00    -0.271 OA
BRANCH  14  17
HETATM   17  C   UNL     1      64.748   3.690   4.649  1.00  0.00     0.022 C 
HETATM   18  C   UNL     1      65.704   3.564   3.451  1.00  0.00     0.037 C 
HETATM   19  C   UNL     1      65.591   3.778   5.934  1.00  0.00     0.037 C 
HETATM   20  C   UNL     1      63.863   2.436   4.748  1.00  0.00     0.037 C 
ENDBRANCH  14  17
ENDBRANCH   2  13
TORSDOF 2
ENDMDL
