MODEL 1
REMARK VINA RESULT:      -4.2      0.000      0.000
REMARK  1 active torsions:
REMARK  status: ('A' for Active; 'I' for Inactive)
REMARK    1  A    between atoms: C_3  and  N_5 
ROOT
HETATM    1  N   UNL     1      62.281  11.615   4.522  1.00  0.00    -0.353 N 
ATOM      2  HN  UNL     1      62.028  12.574   4.759  1.00  0.00     0.166 HD
HETATM    3  C   UNL     1      63.053  10.872   5.331  1.00  0.00     0.098 A 
HETATM    4  C   UNL     1      63.419   9.566   5.035  1.00  0.00     0.054 A 
HETATM    5  C   UNL     1      61.854  11.036   3.378  1.00  0.00     0.090 A 
HETATM    6  C   UNL     1      62.964   8.979   3.850  1.00  0.00    -0.057 A 
HETATM    7  C   UNL     1      62.161   9.739   3.003  1.00  0.00     0.024 A 
HETATM    8  C   UNL     1      63.338   7.568   3.517  1.00  0.00     0.048 C 
ENDROOT
BRANCH   3   9
HETATM    9  N   UNL     1      63.524  11.494   6.485  1.00  0.00    -0.385 N 
HETATM   10  H   UNL     1      63.407  12.465   6.604  1.00  0.00     0.157 HD
HETATM   11  H   UNL     1      63.973  10.963   7.182  1.00  0.00     0.157 HD
ENDBRANCH   3   9
TORSDOF 1
ENDMDL
MODEL 2
REMARK VINA RESULT:      -4.1      1.432      2.100
REMARK  1 active torsions:
REMARK  status: ('A' for Active; 'I' for Inactive)
REMARK    1  A    between atoms: C_3  and  N_5 
ROOT
HETATM    1  N   UNL     1      63.226  10.351   5.614  1.00  0.00    -0.353 N 
ATOM      2  HN  UNL     1      63.557  10.594   6.548  1.00  0.00     0.166 HD
HETATM    3  C   UNL     1      63.529   9.173   5.047  1.00  0.00     0.098 A 
HETATM    4  C   UNL     1      63.098   8.814   3.777  1.00  0.00     0.054 A 
HETATM    5  C   UNL     1      62.462  11.202   4.894  1.00  0.00     0.090 A 
HETATM    6  C   UNL     1      62.304   9.702   3.047  1.00  0.00    -0.057 A 
HETATM    7  C   UNL     1      61.981  10.928   3.624  1.00  0.00     0.024 A 
HETATM    8  C   UNL     1      61.820   9.330   1.679  1.00  0.00     0.048 C 
ENDROOT
BRANCH   3   9
HETATM    9  N   UNL     1      64.353   8.323   5.781  1.00  0.00    -0.385 N 
HETATM   10  H   UNL     1      64.318   8.332   6.765  1.00  0.00     0.157 HD
HETATM   11  H   UNL     1      64.971   7.714   5.316  1.00  0.00     0.157 HD
ENDBRANCH   3   9
TORSDOF 1
ENDMDL
MODEL 3
REMARK VINA RESULT:      -4.0      1.174      2.211
REMARK  1 active torsions:
REMARK  status: ('A' for Active; 'I' for Inactive)
REMARK    1  A    between atoms: C_3  and  N_5 
ROOT
HETATM    1  N   UNL     1      63.901   9.331   5.584  1.00  0.00    -0.353 N 
ATOM      2  HN  UNL     1      64.456   9.233   6.434  1.00  0.00     0.166 HD
HETATM    3  C   UNL     1      63.141  10.415   5.364  1.00  0.00     0.098 A 
HETATM    4  C   UNL     1      62.371  10.578   4.220  1.00  0.00     0.054 A 
HETATM    5  C   UNL     1      63.899   8.375   4.629  1.00  0.00     0.090 A 
HETATM    6  C   UNL     1      62.384   9.583   3.239  1.00  0.00    -0.057 A 
HETATM    7  C   UNL     1      63.170   8.453   3.454  1.00  0.00     0.024 A 
HETATM    8  C   UNL     1      61.570   9.743   1.992  1.00  0.00     0.048 C 
ENDROOT
BRANCH   3   9
HETATM    9  N   UNL     1      63.116  11.373   6.375  1.00  0.00    -0.385 N 
HETATM   10  H   UNL     1      63.932  11.564   6.892  1.00  0.00     0.157 HD
HETATM   11  H   UNL     1      62.283  11.859   6.572  1.00  0.00     0.157 HD
ENDBRANCH   3   9
TORSDOF 1
ENDMDL
MODEL 4
REMARK VINA RESULT:      -3.8      1.931      2.907
REMARK  1 active torsions:
REMARK  status: ('A' for Active; 'I' for Inactive)
REMARK    1  A    between atoms: C_3  and  N_5 
ROOT
HETATM    1  N   UNL     1      62.751   8.058   3.646  1.00  0.00    -0.353 N 
ATOM      2  HN  UNL     1      63.016   7.152   4.034  1.00  0.00     0.166 HD
HETATM    3  C   UNL     1      62.695   9.159   4.411  1.00  0.00     0.098 A 
HETATM    4  C   UNL     1      62.335  10.405   3.914  1.00  0.00     0.054 A 
HETATM    5  C   UNL     1      62.441   8.200   2.338  1.00  0.00     0.090 A 
HETATM    6  C   UNL     1      62.023  10.537   2.558  1.00  0.00    -0.057 A 
HETATM    7  C   UNL     1      62.079   9.402   1.753  1.00  0.00     0.024 A 
HETATM    8  C   UNL     1      61.643  11.874   2.000  1.00  0.00     0.048 C 
ENDROOT
BRANCH   3   9
HETATM    9  N   UNL     1      62.973   8.991   5.765  1.00  0.00    -0.385 N 
HETATM   10  H   UNL     1      62.243   8.796   6.397  1.00  0.00     0.157 HD
HETATM   11  H   UNL     1      63.899   9.068   6.091  1.00  0.00     0.157 HD
ENDBRANCH   3   9
TORSDOF 1
ENDMDL
MODEL 5
REMARK VINA RESULT:      -3.8      0.952      2.392
REMARK  1 active torsions:
REMARK  status: ('A' for Active; 'I' for Inactive)
REMARK    1  A    between atoms: C_3  and  N_5 
ROOT
HETATM    1  N   UNL     1      62.246  11.304   4.340  1.00  0.00    -0.353 N 
ATOM      2  HN  UNL     1      61.938  12.258   4.531  1.00  0.00     0.166 HD
HETATM    3  C   UNL     1      62.038  10.726   3.146  1.00  0.00     0.098 A 
HETATM    4  C   UNL     1      62.441   9.429   2.855  1.00  0.00     0.054 A 
HETATM    5  C   UNL     1      62.880  10.567   5.278  1.00  0.00     0.090 A 
HETATM    6  C   UNL     1      63.101   8.682   3.835  1.00  0.00    -0.057 A 
HETATM    7  C   UNL     1      63.324   9.271   5.077  1.00  0.00     0.024 A 
HETATM    8  C   UNL     1      63.554   7.285   3.538  1.00  0.00     0.048 C 
ENDROOT
BRANCH   3   9
HETATM    9  N   UNL     1      61.344  11.479   2.203  1.00  0.00    -0.385 N 
HETATM   10  H   UNL     1      61.202  11.123   1.296  1.00  0.00     0.157 HD
HETATM   11  H   UNL     1      60.995  12.368   2.443  1.00  0.00     0.157 HD
ENDBRANCH   3   9
TORSDOF 1
ENDMDL
MODEL 6
REMARK VINA RESULT:      -3.7      1.667      2.869
REMARK  1 active torsions:
REMARK  status: ('A' for Active; 'I' for Inactive)
REMARK    1  A    between atoms: C_3  and  N_5 
ROOT
HETATM    1  N   UNL     1      62.058  10.963   3.686  1.00  0.00    -0.353 N 
ATOM      2  HN  UNL     1      61.958  11.794   4.270  1.00  0.00     0.166 HD
HETATM    3  C   UNL     1      61.886  11.017   2.356  1.00  0.00     0.098 A 
HETATM    4  C   UNL     1      62.011   9.906   1.533  1.00  0.00     0.054 A 
HETATM    5  C   UNL     1      62.369   9.761   4.217  1.00  0.00     0.090 A 
HETATM    6  C   UNL     1      62.339   8.670   2.097  1.00  0.00    -0.057 A 
HETATM    7  C   UNL     1      62.521   8.600   3.476  1.00  0.00     0.024 A 
HETATM    8  C   UNL     1      62.489   7.460   1.227  1.00  0.00     0.048 C 
ENDROOT
BRANCH   3   9
HETATM    9  N   UNL     1      61.522  12.252   1.825  1.00  0.00    -0.385 N 
HETATM   10  H   UNL     1      62.206  12.944   1.674  1.00  0.00     0.157 HD
HETATM   11  H   UNL     1      60.580  12.434   1.602  1.00  0.00     0.157 HD
ENDBRANCH   3   9
TORSDOF 1
ENDMDL
MODEL 7
REMARK VINA RESULT:      -3.3      2.184      2.892
REMARK  1 active torsions:
REMARK  status: ('A' for Active; 'I' for Inactive)
REMARK    1  A    between atoms: C_3  and  N_5 
ROOT
HETATM    1  N   UNL     1      61.241   9.581   1.680  1.00  0.00    -0.353 N 
ATOM      2  HN  UNL     1      60.795   9.845   0.802  1.00  0.00     0.166 HD
HETATM    3  C   UNL     1      61.722  10.505   2.528  1.00  0.00     0.098 A 
HETATM    4  C   UNL     1      62.338  10.180   3.729  1.00  0.00     0.054 A 
HETATM    5  C   UNL     1      61.376   8.286   2.042  1.00  0.00     0.090 A 
HETATM    6  C   UNL     1      62.465   8.836   4.091  1.00  0.00    -0.057 A 
HETATM    7  C   UNL     1      61.970   7.867   3.221  1.00  0.00     0.024 A 
HETATM    8  C   UNL     1      63.116   8.463   5.387  1.00  0.00     0.048 C 
ENDROOT
BRANCH   3   9
HETATM    9  N   UNL     1      61.617  11.834   2.124  1.00  0.00    -0.385 N 
HETATM   10  H   UNL     1      60.761  12.312   2.220  1.00  0.00     0.157 HD
HETATM   11  H   UNL     1      62.399  12.295   1.741  1.00  0.00     0.157 HD
ENDBRANCH   3   9
TORSDOF 1
ENDMDL
MODEL 8
REMARK VINA RESULT:      -3.3     12.563     13.146
REMARK  1 active torsions:
REMARK  status: ('A' for Active; 'I' for Inactive)
REMARK    1  A    between atoms: C_3  and  N_5 
ROOT
HETATM    1  N   UNL     1      57.586   1.571  14.536  1.00  0.00    -0.353 N 
ATOM      2  HN  UNL     1      57.412   1.237  15.484  1.00  0.00     0.166 HD
HETATM    3  C   UNL     1      56.601   2.084  13.781  1.00  0.00     0.098 A 
HETATM    4  C   UNL     1      56.803   2.543  12.487  1.00  0.00     0.054 A 
HETATM    5  C   UNL     1      58.818   1.516  13.984  1.00  0.00     0.090 A 
HETATM    6  C   UNL     1      58.085   2.485  11.932  1.00  0.00    -0.057 A 
HETATM    7  C   UNL     1      59.116   1.957  12.705  1.00  0.00     0.024 A 
HETATM    8  C   UNL     1      58.328   2.986  10.542  1.00  0.00     0.048 C 
ENDROOT
BRANCH   3   9
HETATM    9  N   UNL     1      55.327   2.094  14.344  1.00  0.00    -0.385 N 
HETATM   10  H   UNL     1      55.083   1.422  15.021  1.00  0.00     0.157 HD
HETATM   11  H   UNL     1      54.671   2.773  14.065  1.00  0.00     0.157 HD
ENDBRANCH   3   9
TORSDOF 1
ENDMDL
MODEL 9
REMARK VINA RESULT:      -3.2      2.652      3.620
REMARK  1 active torsions:
REMARK  status: ('A' for Active; 'I' for Inactive)
REMARK    1  A    between atoms: C_3  and  N_5 
ROOT
HETATM    1  N   UNL     1      65.681   7.005   4.748  1.00  0.00    -0.353 N 
ATOM      2  HN  UNL     1      66.485   6.433   5.008  1.00  0.00     0.166 HD
HETATM    3  C   UNL     1      65.378   8.131   5.414  1.00  0.00     0.098 A 
HETATM    4  C   UNL     1      64.290   8.931   5.089  1.00  0.00     0.054 A 
HETATM    5  C   UNL     1      64.873   6.663   3.721  1.00  0.00     0.090 A 
HETATM    6  C   UNL     1      63.468   8.566   4.019  1.00  0.00    -0.057 A 
HETATM    7  C   UNL     1      63.772   7.400   3.320  1.00  0.00     0.024 A 
HETATM    8  C   UNL     1      62.296   9.419   3.645  1.00  0.00     0.048 C 
ENDROOT
BRANCH   3   9
HETATM    9  N   UNL     1      66.192   8.450   6.499  1.00  0.00    -0.385 N 
HETATM   10  H   UNL     1      66.429   9.389   6.677  1.00  0.00     0.157 HD
HETATM   11  H   UNL     1      66.529   7.736   7.087  1.00  0.00     0.157 HD
ENDBRANCH   3   9
TORSDOF 1
ENDMDL
