MODEL 1
REMARK VINA RESULT:      -4.2      0.000      0.000
REMARK  4 active torsions:
REMARK  status: ('A' for Active; 'I' for Inactive)
REMARK    1  A    between atoms: N_1  and  C_12 
REMARK    2  A    between atoms: N_5  and  C_9 
REMARK    3  A    between atoms: C_9  and  C_11 
REMARK    4  A    between atoms: C_11  and  C_12 
ROOT
HETATM    1  N   UNL     1      62.987   8.780   4.080  1.00  0.00    -0.345 N 
HETATM    2  C   UNL     1      63.474   9.625   5.048  1.00  0.00     0.079 A 
HETATM    3  N   UNL     1      64.567   9.121   5.588  1.00  0.00    -0.355 N 
ATOM      4  HN  UNL     1      65.136   9.541   6.324  1.00  0.00     0.166 HD
HETATM    5  C   UNL     1      64.784   7.924   4.965  1.00  0.00     0.106 A 
HETATM    6  C   UNL     1      63.820   7.697   4.018  1.00  0.00     0.109 A 
HETATM    7  C   UNL     1      62.859  10.914   5.459  1.00  0.00     0.089 C 
ENDROOT
BRANCH   1   8
HETATM    8  C   UNL     1      61.759   8.909   3.320  1.00  0.00     0.142 C 
BRANCH   8   9
HETATM    9  C   UNL     1      61.970   9.382   1.883  1.00  0.00     0.124 C 
BRANCH   9  10
HETATM   10  C   UNL     1      61.877  10.899   1.883  1.00  0.00    -0.076 C 
BRANCH  10  11
HETATM   11  N   UNL     1      61.800  12.158   1.884  1.00  0.00    -0.370 N 
ATOM     12  HN2 UNL     1      61.872  11.140   1.894  1.00  0.00     0.165 HD
ATOM     13  HN1 UNL     1      61.737  13.175   1.885  1.00  0.00     0.165 HD
ENDBRANCH  10  11
ENDBRANCH   9  10
ENDBRANCH   8   9
ENDBRANCH   1   8
TORSDOF 4
ENDMDL
MODEL 2
REMARK VINA RESULT:      -3.9      1.108      4.217
REMARK  4 active torsions:
REMARK  status: ('A' for Active; 'I' for Inactive)
REMARK    1  A    between atoms: N_1  and  C_12 
REMARK    2  A    between atoms: N_5  and  C_9 
REMARK    3  A    between atoms: C_9  and  C_11 
REMARK    4  A    between atoms: C_11  and  C_12 
ROOT
HETATM    1  N   UNL     1      62.245   9.449   3.379  1.00  0.00    -0.345 N 
HETATM    2  C   UNL     1      61.938   9.837   2.097  1.00  0.00     0.079 A 
HETATM    3  N   UNL     1      61.688  11.131   2.057  1.00  0.00    -0.355 N 
ATOM      4  HN  UNL     1      61.441  11.682   1.235  1.00  0.00     0.166 HD
HETATM    5  C   UNL     1      61.825  11.586   3.339  1.00  0.00     0.106 A 
HETATM    6  C   UNL     1      62.180  10.560   4.175  1.00  0.00     0.109 A 
HETATM    7  C   UNL     1      61.869   8.937   0.916  1.00  0.00     0.089 C 
ENDROOT
BRANCH   1   8
HETATM    8  C   UNL     1      62.485   8.106   3.871  1.00  0.00     0.142 C 
BRANCH   8   9
HETATM    9  C   UNL     1      63.934   7.644   3.720  1.00  0.00     0.124 C 
BRANCH   9  10
HETATM   10  C   UNL     1      64.693   8.118   4.949  1.00  0.00    -0.076 C 
BRANCH  10  11
HETATM   11  N   UNL     1      65.322   8.511   5.968  1.00  0.00    -0.370 N 
ATOM     12  HN2 UNL     1      64.817   8.180   5.147  1.00  0.00     0.165 HD
ATOM     13  HN1 UNL     1      65.831   8.829   6.792  1.00  0.00     0.165 HD
ENDBRANCH  10  11
ENDBRANCH   9  10
ENDBRANCH   8   9
ENDBRANCH   1   8
TORSDOF 4
ENDMDL
MODEL 3
REMARK VINA RESULT:      -3.9      1.747      2.604
REMARK  4 active torsions:
REMARK  status: ('A' for Active; 'I' for Inactive)
REMARK    1  A    between atoms: N_1  and  C_12 
REMARK    2  A    between atoms: N_5  and  C_9 
REMARK    3  A    between atoms: C_9  and  C_11 
REMARK    4  A    between atoms: C_11  and  C_12 
ROOT
HETATM    1  N   UNL     1      62.812   9.315   3.774  1.00  0.00    -0.345 N 
HETATM    2  C   UNL     1      63.709   9.176   4.807  1.00  0.00     0.079 A 
HETATM    3  N   UNL     1      63.602  10.188   5.646  1.00  0.00    -0.355 N 
ATOM      4  HN  UNL     1      64.140  10.334   6.500  1.00  0.00     0.166 HD
HETATM    5  C   UNL     1      62.625  11.001   5.142  1.00  0.00     0.106 A 
HETATM    6  C   UNL     1      62.115  10.473   3.985  1.00  0.00     0.109 A 
HETATM    7  C   UNL     1      64.684   8.065   4.959  1.00  0.00     0.089 C 
ENDROOT
BRANCH   1   8
HETATM    8  C   UNL     1      62.672   8.481   2.597  1.00  0.00     0.142 C 
BRANCH   8   9
HETATM    9  C   UNL     1      62.161   9.230   1.367  1.00  0.00     0.124 C 
BRANCH   9  10
HETATM   10  C   UNL     1      60.735   8.770   1.113  1.00  0.00    -0.076 C 
BRANCH  10  11
HETATM   11  N   UNL     1      59.552   8.387   0.902  1.00  0.00    -0.370 N 
ATOM     12  HN2 UNL     1      60.506   8.709   1.066  1.00  0.00     0.165 HD
ATOM     13  HN1 UNL     1      58.596   8.078   0.732  1.00  0.00     0.165 HD
ENDBRANCH  10  11
ENDBRANCH   9  10
ENDBRANCH   8   9
ENDBRANCH   1   8
TORSDOF 4
ENDMDL
MODEL 4
REMARK VINA RESULT:      -3.8      2.195      2.987
REMARK  4 active torsions:
REMARK  status: ('A' for Active; 'I' for Inactive)
REMARK    1  A    between atoms: N_1  and  C_12 
REMARK    2  A    between atoms: N_5  and  C_9 
REMARK    3  A    between atoms: C_9  and  C_11 
REMARK    4  A    between atoms: C_11  and  C_12 
ROOT
HETATM    1  N   UNL     1      64.122   8.140   5.160  1.00  0.00    -0.345 N 
HETATM    2  C   UNL     1      63.621   7.288   6.115  1.00  0.00     0.079 A 
HETATM    3  N   UNL     1      64.587   6.875   6.913  1.00  0.00    -0.355 N 
ATOM      4  HN  UNL     1      64.496   6.244   7.709  1.00  0.00     0.166 HD
HETATM    5  C   UNL     1      65.735   7.463   6.459  1.00  0.00     0.106 A 
HETATM    6  C   UNL     1      65.467   8.260   5.377  1.00  0.00     0.109 A 
HETATM    7  C   UNL     1      62.202   6.862   6.234  1.00  0.00     0.089 C 
ENDROOT
BRANCH   1   8
HETATM    8  C   UNL     1      63.420   8.734   4.040  1.00  0.00     0.142 C 
BRANCH   8   9
HETATM    9  C   UNL     1      62.405   9.802   4.445  1.00  0.00     0.124 C 
BRANCH   9  10
HETATM   10  C   UNL     1      63.092  10.733   5.430  1.00  0.00    -0.076 C 
BRANCH  10  11
HETATM   11  N   UNL     1      63.662  11.506   6.247  1.00  0.00    -0.370 N 
ATOM     12  HN2 UNL     1      63.201  10.871   5.596  1.00  0.00     0.165 HD
ATOM     13  HN1 UNL     1      64.123  12.131   6.908  1.00  0.00     0.165 HD
ENDBRANCH  10  11
ENDBRANCH   9  10
ENDBRANCH   8   9
ENDBRANCH   1   8
TORSDOF 4
ENDMDL
MODEL 5
REMARK VINA RESULT:      -3.7      1.227      4.115
REMARK  4 active torsions:
REMARK  status: ('A' for Active; 'I' for Inactive)
REMARK    1  A    between atoms: N_1  and  C_12 
REMARK    2  A    between atoms: N_5  and  C_9 
REMARK    3  A    between atoms: C_9  and  C_11 
REMARK    4  A    between atoms: C_11  and  C_12 
ROOT
HETATM    1  N   UNL     1      62.543   9.365   3.553  1.00  0.00    -0.345 N 
HETATM    2  C   UNL     1      62.042  10.630   3.356  1.00  0.00     0.079 A 
HETATM    3  N   UNL     1      61.612  10.765   2.116  1.00  0.00    -0.355 N 
ATOM      4  HN  UNL     1      61.188  11.595   1.701  1.00  0.00     0.166 HD
HETATM    5  C   UNL     1      61.850   9.568   1.497  1.00  0.00     0.106 A 
HETATM    6  C   UNL     1      62.419   8.682   2.375  1.00  0.00     0.109 A 
HETATM    7  C   UNL     1      62.003  11.712   4.374  1.00  0.00     0.089 C 
ENDROOT
BRANCH   1   8
HETATM    8  C   UNL     1      63.199   8.842   4.735  1.00  0.00     0.142 C 
BRANCH   8   9
HETATM    9  C   UNL     1      64.441   8.004   4.430  1.00  0.00     0.124 C 
BRANCH   9  10
HETATM   10  C   UNL     1      65.417   8.203   5.578  1.00  0.00    -0.076 C 
BRANCH  10  11
HETATM   11  N   UNL     1      66.226   8.368   6.531  1.00  0.00    -0.370 N 
ATOM     12  HN2 UNL     1      65.582   8.231   5.752  1.00  0.00     0.165 HD
ATOM     13  HN1 UNL     1      66.881   8.501   7.301  1.00  0.00     0.165 HD
ENDBRANCH  10  11
ENDBRANCH   9  10
ENDBRANCH   8   9
ENDBRANCH   1   8
TORSDOF 4
ENDMDL
MODEL 6
REMARK VINA RESULT:      -3.6      1.782      4.246
REMARK  4 active torsions:
REMARK  status: ('A' for Active; 'I' for Inactive)
REMARK    1  A    between atoms: N_1  and  C_12 
REMARK    2  A    between atoms: N_5  and  C_9 
REMARK    3  A    between atoms: C_9  and  C_11 
REMARK    4  A    between atoms: C_11  and  C_12 
ROOT
HETATM    1  N   UNL     1      62.658   8.909   4.367  1.00  0.00    -0.345 N 
HETATM    2  C   UNL     1      61.811   9.788   3.735  1.00  0.00     0.079 A 
HETATM    3  N   UNL     1      60.809   9.137   3.176  1.00  0.00    -0.355 N 
ATOM      4  HN  UNL     1      60.034   9.540   2.650  1.00  0.00     0.166 HD
HETATM    5  C   UNL     1      61.018   7.812   3.444  1.00  0.00     0.106 A 
HETATM    6  C   UNL     1      62.156   7.649   4.190  1.00  0.00     0.109 A 
HETATM    7  C   UNL     1      61.994  11.261   3.660  1.00  0.00     0.089 C 
ENDROOT
BRANCH   1   8
HETATM    8  C   UNL     1      63.922   9.200   5.014  1.00  0.00     0.142 C 
BRANCH   8   9
HETATM    9  C   UNL     1      64.950   8.075   4.893  1.00  0.00     0.124 C 
BRANCH   9  10
HETATM   10  C   UNL     1      65.980   8.279   5.992  1.00  0.00    -0.076 C 
BRANCH  10  11
HETATM   11  N   UNL     1      66.834   8.448   6.904  1.00  0.00    -0.370 N 
ATOM     12  HN2 UNL     1      66.153   8.312   6.157  1.00  0.00     0.165 HD
ATOM     13  HN1 UNL     1      67.524   8.584   7.642  1.00  0.00     0.165 HD
ENDBRANCH  10  11
ENDBRANCH   9  10
ENDBRANCH   8   9
ENDBRANCH   1   8
TORSDOF 4
ENDMDL
MODEL 7
REMARK VINA RESULT:      -3.5      1.679      2.254
REMARK  4 active torsions:
REMARK  status: ('A' for Active; 'I' for Inactive)
REMARK    1  A    between atoms: N_1  and  C_12 
REMARK    2  A    between atoms: N_5  and  C_9 
REMARK    3  A    between atoms: C_9  and  C_11 
REMARK    4  A    between atoms: C_11  and  C_12 
ROOT
HETATM    1  N   UNL     1      63.157   7.906   4.776  1.00  0.00    -0.345 N 
HETATM    2  C   UNL     1      64.274   7.611   5.521  1.00  0.00     0.079 A 
HETATM    3  N   UNL     1      63.995   6.686   6.419  1.00  0.00    -0.355 N 
ATOM      4  HN  UNL     1      64.638   6.278   7.098  1.00  0.00     0.166 HD
HETATM    5  C   UNL     1      62.671   6.385   6.259  1.00  0.00     0.106 A 
HETATM    6  C   UNL     1      62.134   7.124   5.237  1.00  0.00     0.109 A 
HETATM    7  C   UNL     1      65.608   8.250   5.367  1.00  0.00     0.089 C 
ENDROOT
BRANCH   1   8
HETATM    8  C   UNL     1      63.009   8.928   3.760  1.00  0.00     0.142 C 
BRANCH   8   9
HETATM    9  C   UNL     1      62.323  10.200   4.259  1.00  0.00     0.124 C 
BRANCH   9  10
HETATM   10  C   UNL     1      61.930  11.015   3.039  1.00  0.00    -0.076 C 
BRANCH  10  11
HETATM   11  N   UNL     1      61.603  11.691   2.025  1.00  0.00    -0.370 N 
ATOM     12  HN2 UNL     1      61.880  11.150   2.844  1.00  0.00     0.165 HD
ATOM     13  HN1 UNL     1      61.339  12.238   1.206  1.00  0.00     0.165 HD
ENDBRANCH  10  11
ENDBRANCH   9  10
ENDBRANCH   8   9
ENDBRANCH   1   8
TORSDOF 4
ENDMDL
MODEL 8
REMARK VINA RESULT:      -3.5      2.630      4.192
REMARK  4 active torsions:
REMARK  status: ('A' for Active; 'I' for Inactive)
REMARK    1  A    between atoms: N_1  and  C_12 
REMARK    2  A    between atoms: N_5  and  C_9 
REMARK    3  A    between atoms: C_9  and  C_11 
REMARK    4  A    between atoms: C_11  and  C_12 
ROOT
HETATM    1  N   UNL     1      65.955   7.452   5.972  1.00  0.00    -0.345 N 
HETATM    2  C   UNL     1      66.688   6.947   7.019  1.00  0.00     0.079 A 
HETATM    3  N   UNL     1      67.973   6.946   6.720  1.00  0.00    -0.355 N 
ATOM      4  HN  UNL     1      68.740   6.632   7.315  1.00  0.00     0.166 HD
HETATM    5  C   UNL     1      68.070   7.450   5.452  1.00  0.00     0.106 A 
HETATM    6  C   UNL     1      66.829   7.779   4.973  1.00  0.00     0.109 A 
HETATM    7  C   UNL     1      66.131   6.447   8.303  1.00  0.00     0.089 C 
ENDROOT
BRANCH   1   8
HETATM    8  C   UNL     1      64.512   7.534   5.854  1.00  0.00     0.142 C 
BRANCH   8   9
HETATM    9  C   UNL     1      64.038   8.387   4.678  1.00  0.00     0.124 C 
BRANCH   9  10
HETATM   10  C   UNL     1      63.475   9.678   5.250  1.00  0.00    -0.076 C 
BRANCH  10  11
HETATM   11  N   UNL     1      63.008  10.749   5.725  1.00  0.00    -0.370 N 
ATOM     12  HN2 UNL     1      63.399   9.887   5.343  1.00  0.00     0.165 HD
ATOM     13  HN1 UNL     1      62.631  11.615   6.109  1.00  0.00     0.165 HD
ENDBRANCH  10  11
ENDBRANCH   9  10
ENDBRANCH   8   9
ENDBRANCH   1   8
TORSDOF 4
ENDMDL
MODEL 9
REMARK VINA RESULT:      -3.4      1.780      4.020
REMARK  4 active torsions:
REMARK  status: ('A' for Active; 'I' for Inactive)
REMARK    1  A    between atoms: N_1  and  C_12 
REMARK    2  A    between atoms: N_5  and  C_9 
REMARK    3  A    between atoms: C_9  and  C_11 
REMARK    4  A    between atoms: C_11  and  C_12 
ROOT
HETATM    1  N   UNL     1      62.609   9.447   3.492  1.00  0.00    -0.345 N 
HETATM    2  C   UNL     1      62.069   9.922   2.321  1.00  0.00     0.079 A 
HETATM    3  N   UNL     1      61.624  11.153   2.488  1.00  0.00    -0.355 N 
ATOM      4  HN  UNL     1      61.183  11.745   1.784  1.00  0.00     0.166 HD
HETATM    5  C   UNL     1      61.871  11.475   3.793  1.00  0.00     0.106 A 
HETATM    6  C   UNL     1      62.492  10.433   4.433  1.00  0.00     0.109 A 
HETATM    7  C   UNL     1      61.970   9.165   1.046  1.00  0.00     0.089 C 
ENDROOT
BRANCH   1   8
HETATM    8  C   UNL     1      63.115   8.116   3.764  1.00  0.00     0.142 C 
BRANCH   8   9
HETATM    9  C   UNL     1      62.349   7.377   4.860  1.00  0.00     0.124 C 
BRANCH   9  10
HETATM   10  C   UNL     1      60.961   7.073   4.320  1.00  0.00    -0.076 C 
BRANCH  10  11
HETATM   11  N   UNL     1      59.810   6.820   3.872  1.00  0.00    -0.370 N 
ATOM     12  HN2 UNL     1      60.742   7.011   4.240  1.00  0.00     0.165 HD
ATOM     13  HN1 UNL     1      58.879   6.616   3.510  1.00  0.00     0.165 HD
ENDBRANCH  10  11
ENDBRANCH   9  10
ENDBRANCH   8   9
ENDBRANCH   1   8
TORSDOF 4
ENDMDL
