MODEL 1
REMARK VINA RESULT:      -4.6      0.000      0.000
REMARK  4 active torsions:
REMARK  status: ('A' for Active; 'I' for Inactive)
REMARK    1  A    between atoms: N_1  and  C_4 
REMARK    2  A    between atoms: C_4  and  C_11 
REMARK    3  A    between atoms: C_5  and  O_12 
REMARK    4  A    between atoms: C_6  and  C_11 
ROOT
HETATM    1  C   UNL     1      64.141   8.055   5.338  1.00  0.00     0.068 A 
HETATM    2  C   UNL     1      62.636   8.855   3.102  1.00  0.00    -0.046 A 
HETATM    3  C   UNL     1      63.391   9.230   5.377  1.00  0.00     0.037 A 
HETATM    4  C   UNL     1      64.149   7.281   4.176  1.00  0.00     0.037 A 
HETATM    5  C   UNL     1      62.640   9.628   4.270  1.00  0.00     0.011 A 
HETATM    6  C   UNL     1      63.402   7.679   3.065  1.00  0.00     0.011 A 
ENDROOT
BRANCH   2   7
HETATM    7  C   UNL     1      61.922   9.336   1.863  1.00  0.00     0.142 C 
BRANCH   7   8
HETATM    8  C   UNL     1      61.854  10.855   1.863  1.00  0.00    -0.073 C 
BRANCH   8   9
HETATM    9  N   UNL     1      61.796  12.114   1.862  1.00  0.00    -0.369 N 
ATOM     10  HN2 UNL     1      61.815  11.095   1.902  1.00  0.00     0.165 HD
ATOM     11  HN1 UNL     1      61.750  13.133   1.861  1.00  0.00     0.165 HD
ENDBRANCH   8   9
ENDBRANCH   7   8
ENDBRANCH   2   7
BRANCH   1  12
HETATM   12  O   UNL     1      64.861   7.780   6.468  1.00  0.00    -0.356 OA
HETATM   13  C   UNL     1      66.273   7.877   6.333  1.00  0.00     0.210 C 
ENDBRANCH   1  12
TORSDOF 4
ENDMDL
MODEL 2
REMARK VINA RESULT:      -4.6      3.038      3.839
REMARK  4 active torsions:
REMARK  status: ('A' for Active; 'I' for Inactive)
REMARK    1  A    between atoms: N_1  and  C_4 
REMARK    2  A    between atoms: C_4  and  C_11 
REMARK    3  A    between atoms: C_5  and  O_12 
REMARK    4  A    between atoms: C_6  and  C_11 
ROOT
HETATM    1  C   UNL     1      62.099  10.909   3.717  1.00  0.00     0.068 A 
HETATM    2  C   UNL     1      62.184   9.131   1.541  1.00  0.00    -0.046 A 
HETATM    3  C   UNL     1      62.426   9.569   3.914  1.00  0.00     0.037 A 
HETATM    4  C   UNL     1      61.802  11.363   2.430  1.00  0.00     0.037 A 
HETATM    5  C   UNL     1      62.474   8.683   2.836  1.00  0.00     0.011 A 
HETATM    6  C   UNL     1      61.844  10.479   1.349  1.00  0.00     0.011 A 
ENDROOT
BRANCH   2   7
HETATM    7  C   UNL     1      62.119   8.160   0.388  1.00  0.00     0.142 C 
BRANCH   7   8
HETATM    8  C   UNL     1      60.721   7.570   0.287  1.00  0.00    -0.073 C 
BRANCH   8   9
HETATM    9  N   UNL     1      59.563   7.081   0.203  1.00  0.00    -0.369 N 
ATOM     10  HN2 UNL     1      60.486   7.503   0.307  1.00  0.00     0.165 HD
ATOM     11  HN1 UNL     1      58.626   6.684   0.134  1.00  0.00     0.165 HD
ENDBRANCH   8   9
ENDBRANCH   7   8
ENDBRANCH   2   7
BRANCH   1  12
HETATM   12  O   UNL     1      62.054  11.676   4.848  1.00  0.00    -0.356 OA
HETATM   13  C   UNL     1      62.977  11.316   5.869  1.00  0.00     0.210 C 
ENDBRANCH   1  12
TORSDOF 4
ENDMDL
MODEL 3
REMARK VINA RESULT:      -4.4      3.027      4.702
REMARK  4 active torsions:
REMARK  status: ('A' for Active; 'I' for Inactive)
REMARK    1  A    between atoms: N_1  and  C_4 
REMARK    2  A    between atoms: C_4  and  C_11 
REMARK    3  A    between atoms: C_5  and  O_12 
REMARK    4  A    between atoms: C_6  and  C_11 
ROOT
HETATM    1  C   UNL     1      62.449  10.085   3.901  1.00  0.00     0.068 A 
HETATM    2  C   UNL     1      63.917   7.696   4.111  1.00  0.00    -0.046 A 
HETATM    3  C   UNL     1      62.405   9.138   2.878  1.00  0.00     0.037 A 
HETATM    4  C   UNL     1      63.236   9.845   5.028  1.00  0.00     0.037 A 
HETATM    5  C   UNL     1      63.129   7.949   2.980  1.00  0.00     0.011 A 
HETATM    6  C   UNL     1      63.966   8.658   5.132  1.00  0.00     0.011 A 
ENDROOT
BRANCH   2   7
HETATM    7  C   UNL     1      64.793   6.470   4.179  1.00  0.00     0.142 C 
BRANCH   7   8
HETATM    8  C   UNL     1      66.257   6.879   4.172  1.00  0.00    -0.073 C 
BRANCH   8   9
HETATM    9  N   UNL     1      67.471   7.218   4.167  1.00  0.00    -0.369 N 
ATOM     10  HN2 UNL     1      66.486   6.954   4.217  1.00  0.00     0.165 HD
ATOM     11  HN1 UNL     1      68.453   7.492   4.163  1.00  0.00     0.165 HD
ENDBRANCH   8   9
ENDBRANCH   7   8
ENDBRANCH   2   7
BRANCH   1  12
HETATM   12  O   UNL     1      61.725  11.224   3.678  1.00  0.00    -0.356 OA
HETATM   13  C   UNL     1      61.742  11.709   2.342  1.00  0.00     0.210 C 
ENDBRANCH   1  12
TORSDOF 4
ENDMDL
MODEL 4
REMARK VINA RESULT:      -4.3      3.102      4.184
REMARK  4 active torsions:
REMARK  status: ('A' for Active; 'I' for Inactive)
REMARK    1  A    between atoms: N_1  and  C_4 
REMARK    2  A    between atoms: C_4  and  C_11 
REMARK    3  A    between atoms: C_5  and  O_12 
REMARK    4  A    between atoms: C_6  and  C_11 
ROOT
HETATM    1  C   UNL     1      62.330   7.620   1.539  1.00  0.00     0.068 A 
HETATM    2  C   UNL     1      62.012  10.045   2.926  1.00  0.00    -0.046 A 
HETATM    3  C   UNL     1      62.299   7.636   2.933  1.00  0.00     0.037 A 
HETATM    4  C   UNL     1      62.213   8.818   0.834  1.00  0.00     0.037 A 
HETATM    5  C   UNL     1      62.136   8.837   3.625  1.00  0.00     0.011 A 
HETATM    6  C   UNL     1      62.055  10.023   1.523  1.00  0.00     0.011 A 
ENDROOT
BRANCH   2   7
HETATM    7  C   UNL     1      61.953  11.359   3.665  1.00  0.00     0.142 C 
BRANCH   7   8
HETATM    8  C   UNL     1      62.698  11.244   4.985  1.00  0.00    -0.073 C 
BRANCH   8   9
HETATM    9  N   UNL     1      63.316  11.149   6.079  1.00  0.00    -0.369 N 
ATOM     10  HN2 UNL     1      62.858  11.231   5.171  1.00  0.00     0.165 HD
ATOM     11  HN1 UNL     1      63.815  11.073   6.966  1.00  0.00     0.165 HD
ENDBRANCH   8   9
ENDBRANCH   7   8
ENDBRANCH   2   7
BRANCH   1  12
HETATM   12  O   UNL     1      62.524   6.391   0.970  1.00  0.00    -0.356 OA
HETATM   13  C   UNL     1      61.387   5.538   0.952  1.00  0.00     0.210 C 
ENDBRANCH   1  12
TORSDOF 4
ENDMDL
MODEL 5
REMARK VINA RESULT:      -4.2      3.339      4.872
REMARK  4 active torsions:
REMARK  status: ('A' for Active; 'I' for Inactive)
REMARK    1  A    between atoms: N_1  and  C_4 
REMARK    2  A    between atoms: C_4  and  C_11 
REMARK    3  A    between atoms: C_5  and  O_12 
REMARK    4  A    between atoms: C_6  and  C_11 
ROOT
HETATM    1  C   UNL     1      62.033  10.326   3.913  1.00  0.00     0.068 A 
HETATM    2  C   UNL     1      62.854   7.850   4.961  1.00  0.00    -0.046 A 
HETATM    3  C   UNL     1      63.015  10.270   4.901  1.00  0.00     0.037 A 
HETATM    4  C   UNL     1      61.450   9.144   3.453  1.00  0.00     0.037 A 
HETATM    5  C   UNL     1      63.429   9.042   5.421  1.00  0.00     0.011 A 
HETATM    6  C   UNL     1      61.858   7.914   3.974  1.00  0.00     0.011 A 
ENDROOT
BRANCH   2   7
HETATM    7  C   UNL     1      63.209   6.529   5.598  1.00  0.00     0.142 C 
BRANCH   7   8
HETATM    8  C   UNL     1      64.335   6.725   6.600  1.00  0.00    -0.073 C 
BRANCH   8   9
HETATM    9  N   UNL     1      65.268   6.888   7.432  1.00  0.00    -0.369 N 
ATOM     10  HN2 UNL     1      64.542   6.771   6.725  1.00  0.00     0.165 HD
ATOM     11  HN1 UNL     1      66.022   7.019   8.106  1.00  0.00     0.165 HD
ENDBRANCH   8   9
ENDBRANCH   7   8
ENDBRANCH   2   7
BRANCH   1  12
HETATM   12  O   UNL     1      61.687  11.584   3.500  1.00  0.00    -0.356 OA
HETATM   13  C   UNL     1      61.759  11.810   2.098  1.00  0.00     0.210 C 
ENDBRANCH   1  12
TORSDOF 4
ENDMDL
MODEL 6
REMARK VINA RESULT:      -4.2      1.755      2.318
REMARK  4 active torsions:
REMARK  status: ('A' for Active; 'I' for Inactive)
REMARK    1  A    between atoms: N_1  and  C_4 
REMARK    2  A    between atoms: C_4  and  C_11 
REMARK    3  A    between atoms: C_5  and  O_12 
REMARK    4  A    between atoms: C_6  and  C_11 
ROOT
HETATM    1  C   UNL     1      63.288   8.180   5.247  1.00  0.00     0.068 A 
HETATM    2  C   UNL     1      62.609   8.689   2.567  1.00  0.00    -0.046 A 
HETATM    3  C   UNL     1      63.438   7.186   4.281  1.00  0.00     0.037 A 
HETATM    4  C   UNL     1      62.788   9.429   4.878  1.00  0.00     0.037 A 
HETATM    5  C   UNL     1      63.106   7.436   2.949  1.00  0.00     0.011 A 
HETATM    6  C   UNL     1      62.450   9.682   3.546  1.00  0.00     0.011 A 
ENDROOT
BRANCH   2   7
HETATM    7  C   UNL     1      62.139   8.932   1.154  1.00  0.00     0.142 C 
BRANCH   7   8
HETATM    8  C   UNL     1      60.650   8.647   1.048  1.00  0.00    -0.073 C 
BRANCH   8   9
HETATM    9  N   UNL     1      59.415   8.411   0.960  1.00  0.00    -0.369 N 
ATOM     10  HN2 UNL     1      60.423   8.555   1.028  1.00  0.00     0.165 HD
ATOM     11  HN1 UNL     1      58.415   8.220   0.888  1.00  0.00     0.165 HD
ENDBRANCH   8   9
ENDBRANCH   7   8
ENDBRANCH   2   7
BRANCH   1  12
HETATM   12  O   UNL     1      63.615   7.812   6.524  1.00  0.00    -0.356 OA
HETATM   13  C   UNL     1      64.555   6.750   6.633  1.00  0.00     0.210 C 
ENDBRANCH   1  12
TORSDOF 4
ENDMDL
MODEL 7
REMARK VINA RESULT:      -3.9      3.477      5.259
REMARK  4 active torsions:
REMARK  status: ('A' for Active; 'I' for Inactive)
REMARK    1  A    between atoms: N_1  and  C_4 
REMARK    2  A    between atoms: C_4  and  C_11 
REMARK    3  A    between atoms: C_5  and  O_12 
REMARK    4  A    between atoms: C_6  and  C_11 
ROOT
HETATM    1  C   UNL     1      63.282   8.427   4.082  1.00  0.00     0.068 A 
HETATM    2  C   UNL     1      65.730   7.070   4.354  1.00  0.00    -0.046 A 
HETATM    3  C   UNL     1      63.553   7.298   3.308  1.00  0.00     0.037 A 
HETATM    4  C   UNL     1      64.240   8.887   4.987  1.00  0.00     0.037 A 
HETATM    5  C   UNL     1      64.765   6.620   3.443  1.00  0.00     0.011 A 
HETATM    6  C   UNL     1      65.456   8.213   5.121  1.00  0.00     0.011 A 
ENDROOT
BRANCH   2   7
HETATM    7  C   UNL     1      67.087   6.414   4.424  1.00  0.00     0.142 C 
BRANCH   7   8
HETATM    8  C   UNL     1      67.627   6.493   5.843  1.00  0.00    -0.073 C 
BRANCH   8   9
HETATM    9  N   UNL     1      68.075   6.561   7.019  1.00  0.00    -0.369 N 
ATOM     10  HN2 UNL     1      67.746   6.474   6.057  1.00  0.00     0.165 HD
ATOM     11  HN1 UNL     1      68.437   6.616   7.971  1.00  0.00     0.165 HD
ENDBRANCH   8   9
ENDBRANCH   7   8
ENDBRANCH   2   7
BRANCH   1  12
HETATM   12  O   UNL     1      62.077   9.027   3.843  1.00  0.00    -0.356 OA
HETATM   13  C   UNL     1      62.080  10.448   3.894  1.00  0.00     0.210 C 
ENDBRANCH   1  12
TORSDOF 4
ENDMDL
MODEL 8
REMARK VINA RESULT:      -3.9      2.334      3.168
REMARK  4 active torsions:
REMARK  status: ('A' for Active; 'I' for Inactive)
REMARK    1  A    between atoms: N_1  and  C_4 
REMARK    2  A    between atoms: C_4  and  C_11 
REMARK    3  A    between atoms: C_5  and  O_12 
REMARK    4  A    between atoms: C_6  and  C_11 
ROOT
HETATM    1  C   UNL     1      66.607   6.569   4.920  1.00  0.00     0.068 A 
HETATM    2  C   UNL     1      64.329   8.183   4.586  1.00  0.00    -0.046 A 
HETATM    3  C   UNL     1      66.450   7.732   5.673  1.00  0.00     0.037 A 
HETATM    4  C   UNL     1      65.629   6.215   3.989  1.00  0.00     0.037 A 
HETATM    5  C   UNL     1      65.319   8.534   5.513  1.00  0.00     0.011 A 
HETATM    6  C   UNL     1      64.497   7.017   3.823  1.00  0.00     0.011 A 
ENDROOT
BRANCH   2   7
HETATM    7  C   UNL     1      63.161   9.101   4.323  1.00  0.00     0.142 C 
BRANCH   7   8
HETATM    8  C   UNL     1      63.234  10.307   5.246  1.00  0.00    -0.073 C 
BRANCH   8   9
HETATM    9  N   UNL     1      63.295  11.307   6.012  1.00  0.00    -0.369 N 
ATOM     10  HN2 UNL     1      63.234  10.527   5.356  1.00  0.00     0.165 HD
ATOM     11  HN1 UNL     1      63.344  12.115   6.632  1.00  0.00     0.165 HD
ENDBRANCH   8   9
ENDBRANCH   7   8
ENDBRANCH   2   7
BRANCH   1  12
HETATM   12  O   UNL     1      67.768   5.880   5.139  1.00  0.00    -0.356 OA
HETATM   13  C   UNL     1      67.612   4.501   5.452  1.00  0.00     0.210 C 
ENDBRANCH   1  12
TORSDOF 4
ENDMDL
MODEL 9
REMARK VINA RESULT:      -3.8      4.167      5.655
REMARK  4 active torsions:
REMARK  status: ('A' for Active; 'I' for Inactive)
REMARK    1  A    between atoms: N_1  and  C_4 
REMARK    2  A    between atoms: C_4  and  C_11 
REMARK    3  A    between atoms: C_5  and  O_12 
REMARK    4  A    between atoms: C_6  and  C_11 
ROOT
HETATM    1  C   UNL     1      58.474   7.007   2.201  1.00  0.00     0.068 A 
HETATM    2  C   UNL     1      60.798   8.434   1.519  1.00  0.00    -0.046 A 
HETATM    3  C   UNL     1      58.678   7.437   0.891  1.00  0.00     0.037 A 
HETATM    4  C   UNL     1      59.428   7.298   3.178  1.00  0.00     0.037 A 
HETATM    5  C   UNL     1      59.832   8.143   0.547  1.00  0.00     0.011 A 
HETATM    6  C   UNL     1      60.583   8.008   2.839  1.00  0.00     0.011 A 
ENDROOT
BRANCH   2   7
HETATM    7  C   UNL     1      61.991   9.295   1.184  1.00  0.00     0.142 C 
BRANCH   7   8
HETATM    8  C   UNL     1      61.828  10.671   1.808  1.00  0.00    -0.073 C 
BRANCH   8   9
HETATM    9  N   UNL     1      61.692  11.812   2.327  1.00  0.00    -0.369 N 
ATOM     10  HN2 UNL     1      61.794  10.908   1.865  1.00  0.00     0.165 HD
ATOM     11  HN1 UNL     1      61.583  12.734   2.748  1.00  0.00     0.165 HD
ENDBRANCH   8   9
ENDBRANCH   7   8
ENDBRANCH   2   7
BRANCH   1  12
HETATM   12  O   UNL     1      57.295   6.352   2.427  1.00  0.00    -0.356 OA
HETATM   13  C   UNL     1      56.269   6.589   1.471  1.00  0.00     0.210 C 
ENDBRANCH   1  12
TORSDOF 4
ENDMDL
