MODEL 1
REMARK VINA RESULT:      -4.4      0.000      0.000
REMARK  2 active torsions:
REMARK  status: ('A' for Active; 'I' for Inactive)
REMARK    1  A    between atoms: C_1  and  C_5 
REMARK    2  A    between atoms: N_4  and  C_5 
ROOT
HETATM    1  C   UNL     1      62.371  10.197   3.756  1.00  0.00    -0.011 A 
HETATM    2  C   UNL     1      62.030  10.489   2.425  1.00  0.00     0.042 A 
HETATM    3 CL   UNL     1      61.591  12.080   1.910  1.00  0.00    -0.084 Cl
HETATM    4  C   UNL     1      62.708   8.866   4.075  1.00  0.00     0.010 A 
HETATM    5  C   UNL     1      62.027   9.483   1.453  1.00  0.00     0.024 A 
HETATM    6  C   UNL     1      62.698   7.862   3.104  1.00  0.00     0.001 A 
HETATM    7  C   UNL     1      62.359   8.172   1.791  1.00  0.00     0.002 A 
ENDROOT
BRANCH   1   8
HETATM    8  C   UNL     1      62.407  11.235   4.849  1.00  0.00     0.269 C 
BRANCH   8   9
HETATM    9  N   UNL     1      63.472  10.965   5.813  1.00  0.00    -0.075 N 
HETATM   10  H   UNL     1      63.176  11.266   6.741  1.00  0.00     0.274 HD
HETATM   11  H   UNL     1      64.313  11.474   5.542  1.00  0.00     0.274 HD
HETATM   12  H   UNL     1      63.671   9.963   5.828  1.00  0.00     0.274 HD
ENDBRANCH   8   9
ENDBRANCH   1   8
TORSDOF 2
ENDMDL
MODEL 2
REMARK VINA RESULT:      -4.3      2.009      2.578
REMARK  2 active torsions:
REMARK  status: ('A' for Active; 'I' for Inactive)
REMARK    1  A    between atoms: C_1  and  C_5 
REMARK    2  A    between atoms: N_4  and  C_5 
ROOT
HETATM    1  C   UNL     1      62.644   9.867   4.071  1.00  0.00    -0.011 A 
HETATM    2  C   UNL     1      62.816   8.721   3.278  1.00  0.00     0.042 A 
HETATM    3 CL   UNL     1      63.492   7.257   3.901  1.00  0.00    -0.084 Cl
HETATM    4  C   UNL     1      62.089  11.013   3.466  1.00  0.00     0.010 A 
HETATM    5  C   UNL     1      62.447   8.726   1.928  1.00  0.00     0.024 A 
HETATM    6  C   UNL     1      61.727  11.018   2.117  1.00  0.00     0.001 A 
HETATM    7  C   UNL     1      61.905   9.872   1.348  1.00  0.00     0.002 A 
ENDROOT
BRANCH   1   8
HETATM    8  C   UNL     1      63.007   9.925   5.534  1.00  0.00     0.269 C 
BRANCH   8   9
HETATM    9  N   UNL     1      63.277  11.294   5.968  1.00  0.00    -0.075 N 
HETATM   10  H   UNL     1      62.565  11.586   6.636  1.00  0.00     0.274 HD
HETATM   11  H   UNL     1      63.261  11.916   5.159  1.00  0.00     0.274 HD
HETATM   12  H   UNL     1      64.197  11.335   6.410  1.00  0.00     0.274 HD
ENDBRANCH   8   9
ENDBRANCH   1   8
TORSDOF 2
ENDMDL
MODEL 3
REMARK VINA RESULT:      -4.2      2.042      2.770
REMARK  2 active torsions:
REMARK  status: ('A' for Active; 'I' for Inactive)
REMARK    1  A    between atoms: C_1  and  C_5 
REMARK    2  A    between atoms: N_4  and  C_5 
ROOT
HETATM    1  C   UNL     1      62.698   9.338   4.055  1.00  0.00    -0.011 A 
HETATM    2  C   UNL     1      62.640   8.793   2.762  1.00  0.00     0.042 A 
HETATM    3 CL   UNL     1      63.121   7.169   2.418  1.00  0.00    -0.084 Cl
HETATM    4  C   UNL     1      62.289  10.675   4.229  1.00  0.00     0.010 A 
HETATM    5  C   UNL     1      62.189   9.563   1.684  1.00  0.00     0.024 A 
HETATM    6  C   UNL     1      61.845  11.443   3.151  1.00  0.00     0.001 A 
HETATM    7  C   UNL     1      61.793  10.886   1.877  1.00  0.00     0.002 A 
ENDROOT
BRANCH   1   8
HETATM    8  C   UNL     1      63.161   8.560   5.262  1.00  0.00     0.269 C 
BRANCH   8   9
HETATM    9  N   UNL     1      64.527   8.915   5.640  1.00  0.00    -0.075 N 
HETATM   10  H   UNL     1      65.130   8.099   5.545  1.00  0.00     0.274 HD
HETATM   11  H   UNL     1      64.539   9.236   6.608  1.00  0.00     0.274 HD
HETATM   12  H   UNL     1      64.865   9.661   5.031  1.00  0.00     0.274 HD
ENDBRANCH   8   9
ENDBRANCH   1   8
TORSDOF 2
ENDMDL
MODEL 4
REMARK VINA RESULT:      -4.2      1.896      2.558
REMARK  2 active torsions:
REMARK  status: ('A' for Active; 'I' for Inactive)
REMARK    1  A    between atoms: C_1  and  C_5 
REMARK    2  A    between atoms: N_4  and  C_5 
ROOT
HETATM    1  C   UNL     1      63.053   9.095   4.170  1.00  0.00    -0.011 A 
HETATM    2  C   UNL     1      62.597  10.416   4.308  1.00  0.00     0.042 A 
HETATM    3 CL   UNL     1      62.797  11.316   5.770  1.00  0.00    -0.084 Cl
HETATM    4  C   UNL     1      62.836   8.445   2.938  1.00  0.00     0.010 A 
HETATM    5  C   UNL     1      61.946  11.059   3.250  1.00  0.00     0.024 A 
HETATM    6  C   UNL     1      62.180   9.087   1.885  1.00  0.00     0.001 A 
HETATM    7  C   UNL     1      61.736  10.397   2.041  1.00  0.00     0.002 A 
ENDROOT
BRANCH   1   8
HETATM    8  C   UNL     1      63.774   8.348   5.264  1.00  0.00     0.269 C 
BRANCH   8   9
HETATM    9  N   UNL     1      62.854   7.904   6.310  1.00  0.00    -0.075 N 
HETATM   10  H   UNL     1      61.901   8.161   6.055  1.00  0.00     0.274 HD
HETATM   11  H   UNL     1      63.102   8.350   7.193  1.00  0.00     0.274 HD
HETATM   12  H   UNL     1      62.918   6.890   6.411  1.00  0.00     0.274 HD
ENDBRANCH   8   9
ENDBRANCH   1   8
TORSDOF 2
ENDMDL
MODEL 5
REMARK VINA RESULT:      -4.1      2.151      3.162
REMARK  2 active torsions:
REMARK  status: ('A' for Active; 'I' for Inactive)
REMARK    1  A    between atoms: C_1  and  C_5 
REMARK    2  A    between atoms: N_4  and  C_5 
ROOT
HETATM    1  C   UNL     1      62.113   9.447   2.649  1.00  0.00    -0.011 A 
HETATM    2  C   UNL     1      62.044  10.786   3.064  1.00  0.00     0.042 A 
HETATM    3 CL   UNL     1      61.543  12.060   2.007  1.00  0.00    -0.084 Cl
HETATM    4  C   UNL     1      62.540   8.485   3.585  1.00  0.00     0.010 A 
HETATM    5  C   UNL     1      62.393  11.146   4.371  1.00  0.00     0.024 A 
HETATM    6  C   UNL     1      62.893   8.846   4.887  1.00  0.00     0.001 A 
HETATM    7  C   UNL     1      62.817  10.179   5.281  1.00  0.00     0.002 A 
ENDROOT
BRANCH   1   8
HETATM    8  C   UNL     1      61.739   8.990   1.260  1.00  0.00     0.269 C 
BRANCH   8   9
HETATM    9  N   UNL     1      60.306   8.727   1.147  1.00  0.00    -0.075 N 
HETATM   10  H   UNL     1      59.801   9.611   1.096  1.00  0.00     0.274 HD
HETATM   11  H   UNL     1      59.992   8.201   1.963  1.00  0.00     0.274 HD
HETATM   12  H   UNL     1      60.126   8.182   0.303  1.00  0.00     0.274 HD
ENDBRANCH   8   9
ENDBRANCH   1   8
TORSDOF 2
ENDMDL
MODEL 6
REMARK VINA RESULT:      -4.0      2.330      2.868
REMARK  2 active torsions:
REMARK  status: ('A' for Active; 'I' for Inactive)
REMARK    1  A    between atoms: C_1  and  C_5 
REMARK    2  A    between atoms: N_4  and  C_5 
ROOT
HETATM    1  C   UNL     1      62.209   9.715   2.519  1.00  0.00    -0.011 A 
HETATM    2  C   UNL     1      62.888   8.773   3.309  1.00  0.00     0.042 A 
HETATM    3 CL   UNL     1      63.426   9.127   4.913  1.00  0.00    -0.084 Cl
HETATM    4  C   UNL     1      61.818   9.330   1.221  1.00  0.00     0.010 A 
HETATM    5  C   UNL     1      63.166   7.495   2.813  1.00  0.00     0.024 A 
HETATM    6  C   UNL     1      62.102   8.055   0.726  1.00  0.00     0.001 A 
HETATM    7  C   UNL     1      62.775   7.136   1.524  1.00  0.00     0.002 A 
ENDROOT
BRANCH   1   8
HETATM    8  C   UNL     1      61.866  11.104   2.996  1.00  0.00     0.269 C 
BRANCH   8   9
HETATM    9  N   UNL     1      61.828  12.059   1.890  1.00  0.00    -0.075 N 
HETATM   10  H   UNL     1      61.490  12.959   2.229  1.00  0.00     0.274 HD
HETATM   11  H   UNL     1      61.204  11.712   1.162  1.00  0.00     0.274 HD
HETATM   12  H   UNL     1      62.768  12.171   1.506  1.00  0.00     0.274 HD
ENDBRANCH   8   9
ENDBRANCH   1   8
TORSDOF 2
ENDMDL
MODEL 7
REMARK VINA RESULT:      -3.9      2.058      3.096
REMARK  2 active torsions:
REMARK  status: ('A' for Active; 'I' for Inactive)
REMARK    1  A    between atoms: C_1  and  C_5 
REMARK    2  A    between atoms: N_4  and  C_5 
ROOT
HETATM    1  C   UNL     1      62.957   8.775   3.449  1.00  0.00    -0.011 A 
HETATM    2  C   UNL     1      62.277   9.672   2.610  1.00  0.00     0.042 A 
HETATM    3 CL   UNL     1      61.879   9.288   0.972  1.00  0.00    -0.084 Cl
HETATM    4  C   UNL     1      63.240   9.186   4.767  1.00  0.00     0.010 A 
HETATM    5  C   UNL     1      61.896  10.935   3.077  1.00  0.00     0.024 A 
HETATM    6  C   UNL     1      62.865  10.449   5.229  1.00  0.00     0.001 A 
HETATM    7  C   UNL     1      62.190  11.324   4.383  1.00  0.00     0.002 A 
ENDROOT
BRANCH   1   8
HETATM    8  C   UNL     1      63.384   7.394   3.014  1.00  0.00     0.269 C 
BRANCH   8   9
HETATM    9  N   UNL     1      64.574   6.946   3.736  1.00  0.00    -0.075 N 
HETATM   10  H   UNL     1      65.337   6.803   3.076  1.00  0.00     0.274 HD
HETATM   11  H   UNL     1      64.369   6.070   4.217  1.00  0.00     0.274 HD
HETATM   12  H   UNL     1      64.843   7.655   4.420  1.00  0.00     0.274 HD
ENDBRANCH   8   9
ENDBRANCH   1   8
TORSDOF 2
ENDMDL
MODEL 8
REMARK VINA RESULT:      -3.8      2.707      3.814
REMARK  2 active torsions:
REMARK  status: ('A' for Active; 'I' for Inactive)
REMARK    1  A    between atoms: C_1  and  C_5 
REMARK    2  A    between atoms: N_4  and  C_5 
ROOT
HETATM    1  C   UNL     1      62.536   8.802   2.715  1.00  0.00    -0.011 A 
HETATM    2  C   UNL     1      62.597   9.333   4.014  1.00  0.00     0.042 A 
HETATM    3 CL   UNL     1      63.067   8.384   5.381  1.00  0.00    -0.084 Cl
HETATM    4  C   UNL     1      62.134   9.657   1.670  1.00  0.00     0.010 A 
HETATM    5  C   UNL     1      62.264  10.670   4.254  1.00  0.00     0.024 A 
HETATM    6  C   UNL     1      61.797  10.991   1.912  1.00  0.00     0.001 A 
HETATM    7  C   UNL     1      61.864  11.498   3.206  1.00  0.00     0.002 A 
ENDROOT
BRANCH   1   8
HETATM    8  C   UNL     1      62.894   7.374   2.385  1.00  0.00     0.269 C 
BRANCH   8   9
HETATM    9  N   UNL     1      61.776   6.467   2.640  1.00  0.00    -0.075 N 
HETATM   10  H   UNL     1      62.045   5.787   3.350  1.00  0.00     0.274 HD
HETATM   11  H   UNL     1      61.530   5.981   1.778  1.00  0.00     0.274 HD
HETATM   12  H   UNL     1      60.972   7.003   2.969  1.00  0.00     0.274 HD
ENDBRANCH   8   9
ENDBRANCH   1   8
TORSDOF 2
ENDMDL
MODEL 9
REMARK VINA RESULT:      -3.8      1.587      2.089
REMARK  2 active torsions:
REMARK  status: ('A' for Active; 'I' for Inactive)
REMARK    1  A    between atoms: C_1  and  C_5 
REMARK    2  A    between atoms: N_4  and  C_5 
ROOT
HETATM    1  C   UNL     1      63.205   9.436   4.421  1.00  0.00    -0.011 A 
HETATM    2  C   UNL     1      62.753   8.807   3.250  1.00  0.00     0.042 A 
HETATM    3 CL   UNL     1      61.503   9.477   2.261  1.00  0.00    -0.084 Cl
HETATM    4  C   UNL     1      64.224   8.805   5.161  1.00  0.00     0.010 A 
HETATM    5  C   UNL     1      63.303   7.588   2.839  1.00  0.00     0.024 A 
HETATM    6  C   UNL     1      64.768   7.585   4.752  1.00  0.00     0.001 A 
HETATM    7  C   UNL     1      64.308   6.977   3.588  1.00  0.00     0.002 A 
ENDROOT
BRANCH   1   8
HETATM    8  C   UNL     1      62.665  10.756   4.914  1.00  0.00     0.269 C 
BRANCH   8   9
HETATM    9  N   UNL     1      63.445  11.271   6.038  1.00  0.00    -0.075 N 
HETATM   10  H   UNL     1      63.947  10.504   6.483  1.00  0.00     0.274 HD
HETATM   11  H   UNL     1      62.818  11.707   6.714  1.00  0.00     0.274 HD
HETATM   12  H   UNL     1      64.113  11.964   5.698  1.00  0.00     0.274 HD
ENDBRANCH   8   9
ENDBRANCH   1   8
TORSDOF 2
ENDMDL
