MODEL 1
REMARK VINA RESULT:      -5.0      0.000      0.000
REMARK  2 active torsions:
REMARK  status: ('A' for Active; 'I' for Inactive)
REMARK    1  A    between atoms: S_1  and  C_2 
REMARK    2  A    between atoms: S_1  and  N_5 
ROOT
HETATM    1  C   UNL     1      62.852   9.148   3.712  1.00  0.00     0.080 A 
HETATM    2  C   UNL     1      62.983   8.042   2.852  1.00  0.00    -0.039 A 
HETATM    3  C   UNL     1      62.207  10.317   3.281  1.00  0.00     0.025 A 
HETATM    4  C   UNL     1      63.673   6.752   3.204  1.00  0.00     0.050 C 
HETATM    5  C   UNL     1      62.496   8.169   1.538  1.00  0.00     0.008 A 
HETATM    6  C   UNL     1      61.722  10.412   1.979  1.00  0.00     0.002 A 
HETATM    7  C   UNL     1      61.876   9.342   1.105  1.00  0.00     0.001 A 
ENDROOT
BRANCH   1   8
HETATM    8  S   UNL     1      63.597   9.181   5.323  1.00  0.00     0.239 S 
HETATM    9  O   UNL     1      65.032   9.113   5.199  1.00  0.00    -0.206 OA
HETATM   10  O   UNL     1      62.861   8.314   6.215  1.00  0.00    -0.206 OA
BRANCH   8  11
HETATM   11  N   UNL     1      63.209  10.740   5.821  1.00  0.00    -0.225 NA
HETATM   12  H   UNL     1      63.222  11.367   5.017  1.00  0.00     0.136 HD
HETATM   13  H   UNL     1      63.891  11.056   6.511  1.00  0.00     0.136 HD
ENDBRANCH   8  11
ENDBRANCH   1   8
TORSDOF 2
ENDMDL
MODEL 2
REMARK VINA RESULT:      -4.9      1.645      2.798
REMARK  2 active torsions:
REMARK  status: ('A' for Active; 'I' for Inactive)
REMARK    1  A    between atoms: S_1  and  C_2 
REMARK    2  A    between atoms: S_1  and  N_5 
ROOT
HETATM    1  C   UNL     1      63.248   8.950   4.204  1.00  0.00     0.080 A 
HETATM    2  C   UNL     1      62.686  10.235   4.301  1.00  0.00    -0.039 A 
HETATM    3  C   UNL     1      63.097   8.188   3.035  1.00  0.00     0.025 A 
HETATM    4  C   UNL     1      62.769  11.125   5.511  1.00  0.00     0.050 C 
HETATM    5  C   UNL     1      61.926  10.705   3.213  1.00  0.00     0.008 A 
HETATM    6  C   UNL     1      62.350   8.681   1.968  1.00  0.00     0.002 A 
HETATM    7  C   UNL     1      61.757   9.935   2.062  1.00  0.00     0.001 A 
ENDROOT
BRANCH   1   8
HETATM    8  S   UNL     1      64.059   8.171   5.578  1.00  0.00     0.239 S 
HETATM    9  O   UNL     1      63.096   7.873   6.609  1.00  0.00    -0.206 OA
HETATM   10  O   UNL     1      65.300   8.858   5.861  1.00  0.00    -0.206 OA
BRANCH   8  11
HETATM   11  N   UNL     1      64.526   6.711   4.887  1.00  0.00    -0.225 NA
HETATM   12  H   UNL     1      64.052   5.943   5.362  1.00  0.00     0.136 HD
HETATM   13  H   UNL     1      65.535   6.597   4.981  1.00  0.00     0.136 HD
ENDBRANCH   8  11
ENDBRANCH   1   8
TORSDOF 2
ENDMDL
MODEL 3
REMARK VINA RESULT:      -4.3      1.666      2.070
REMARK  2 active torsions:
REMARK  status: ('A' for Active; 'I' for Inactive)
REMARK    1  A    between atoms: S_1  and  C_2 
REMARK    2  A    between atoms: S_1  and  N_5 
ROOT
HETATM    1  C   UNL     1      62.872   8.755   4.192  1.00  0.00     0.080 A 
HETATM    2  C   UNL     1      62.509   8.728   2.834  1.00  0.00    -0.039 A 
HETATM    3  C   UNL     1      62.716   9.925   4.953  1.00  0.00     0.025 A 
HETATM    4  C   UNL     1      62.653   7.538   1.925  1.00  0.00     0.050 C 
HETATM    5  C   UNL     1      62.039   9.921   2.255  1.00  0.00     0.008 A 
HETATM    6  C   UNL     1      62.237  11.089   4.358  1.00  0.00     0.002 A 
HETATM    7  C   UNL     1      61.908  11.090   3.007  1.00  0.00     0.001 A 
ENDROOT
BRANCH   1   8
HETATM    8  S   UNL     1      63.658   7.374   4.984  1.00  0.00     0.239 S 
HETATM    9  O   UNL     1      65.078   7.414   4.741  1.00  0.00    -0.206 OA
HETATM   10  O   UNL     1      62.874   6.179   4.764  1.00  0.00    -0.206 OA
BRANCH   8  11
HETATM   11  N   UNL     1      63.413   7.754   6.604  1.00  0.00    -0.225 NA
HETATM   12  H   UNL     1      62.497   7.415   6.898  1.00  0.00     0.136 HD
HETATM   13  H   UNL     1      63.457   8.766   6.726  1.00  0.00     0.136 HD
ENDBRANCH   8  11
ENDBRANCH   1   8
TORSDOF 2
ENDMDL
MODEL 4
REMARK VINA RESULT:      -4.2      2.890      3.462
REMARK  2 active torsions:
REMARK  status: ('A' for Active; 'I' for Inactive)
REMARK    1  A    between atoms: S_1  and  C_2 
REMARK    2  A    between atoms: S_1  and  N_5 
ROOT
HETATM    1  C   UNL     1      62.527   8.790   2.785  1.00  0.00     0.080 A 
HETATM    2  C   UNL     1      62.588   9.324   4.085  1.00  0.00    -0.039 A 
HETATM    3  C   UNL     1      62.176   9.600   1.693  1.00  0.00     0.025 A 
HETATM    4  C   UNL     1      62.930   8.543   5.324  1.00  0.00     0.050 C 
HETATM    5  C   UNL     1      62.235  10.675   4.258  1.00  0.00     0.008 A 
HETATM    6  C   UNL     1      61.843  10.938   1.891  1.00  0.00     0.002 A 
HETATM    7  C   UNL     1      61.863  11.472   3.174  1.00  0.00     0.001 A 
ENDROOT
BRANCH   1   8
HETATM    8  S   UNL     1      62.758   7.059   2.467  1.00  0.00     0.239 S 
HETATM    9  O   UNL     1      61.643   6.312   2.993  1.00  0.00    -0.206 OA
HETATM   10  O   UNL     1      64.128   6.693   2.747  1.00  0.00    -0.206 OA
BRANCH   8  11
HETATM   11  N   UNL     1      62.640   7.025   0.789  1.00  0.00    -0.225 NA
HETATM   12  H   UNL     1      63.293   7.699   0.389  1.00  0.00     0.136 HD
HETATM   13  H   UNL     1      61.689   7.266   0.510  1.00  0.00     0.136 HD
ENDBRANCH   8  11
ENDBRANCH   1   8
TORSDOF 2
ENDMDL
MODEL 5
REMARK VINA RESULT:      -3.8      5.374      6.494
REMARK  2 active torsions:
REMARK  status: ('A' for Active; 'I' for Inactive)
REMARK    1  A    between atoms: S_1  and  C_2 
REMARK    2  A    between atoms: S_1  and  N_5 
ROOT
HETATM    1  C   UNL     1      66.033   6.228   7.070  1.00  0.00     0.080 A 
HETATM    2  C   UNL     1      65.905   4.828   7.080  1.00  0.00    -0.039 A 
HETATM    3  C   UNL     1      66.980   6.867   7.886  1.00  0.00     0.025 A 
HETATM    4  C   UNL     1      64.912   4.046   6.264  1.00  0.00     0.050 C 
HETATM    5  C   UNL     1      66.717   4.099   7.969  1.00  0.00     0.008 A 
HETATM    6  C   UNL     1      67.779   6.121   8.749  1.00  0.00     0.002 A 
HETATM    7  C   UNL     1      67.640   4.739   8.798  1.00  0.00     0.001 A 
ENDROOT
BRANCH   1   8
HETATM    8  S   UNL     1      64.935   7.267   6.140  1.00  0.00     0.239 S 
HETATM    9  O   UNL     1      63.686   7.414   6.845  1.00  0.00    -0.206 OA
HETATM   10  O   UNL     1      64.989   6.901   4.742  1.00  0.00    -0.206 OA
BRANCH   8  11
HETATM   11  N   UNL     1      65.740   8.741   6.228  1.00  0.00    -0.225 NA
HETATM   12  H   UNL     1      66.543   8.653   6.850  1.00  0.00     0.136 HD
HETATM   13  H   UNL     1      65.106   9.454   6.590  1.00  0.00     0.136 HD
ENDBRANCH   8  11
ENDBRANCH   1   8
TORSDOF 2
ENDMDL
MODEL 6
REMARK VINA RESULT:      -3.8      3.608      4.836
REMARK  2 active torsions:
REMARK  status: ('A' for Active; 'I' for Inactive)
REMARK    1  A    between atoms: S_1  and  C_2 
REMARK    2  A    between atoms: S_1  and  N_5 
ROOT
HETATM    1  C   UNL     1      65.433   6.970   5.166  1.00  0.00     0.080 A 
HETATM    2  C   UNL     1      66.250   6.443   6.183  1.00  0.00    -0.039 A 
HETATM    3  C   UNL     1      65.556   6.519   3.842  1.00  0.00     0.025 A 
HETATM    4  C   UNL     1      66.216   6.869   7.625  1.00  0.00     0.050 C 
HETATM    5  C   UNL     1      67.223   5.495   5.819  1.00  0.00     0.008 A 
HETATM    6  C   UNL     1      66.520   5.570   3.511  1.00  0.00     0.002 A 
HETATM    7  C   UNL     1      67.360   5.066   4.498  1.00  0.00     0.001 A 
ENDROOT
BRANCH   1   8
HETATM    8  S   UNL     1      64.306   8.309   5.463  1.00  0.00     0.239 S 
HETATM    9  O   UNL     1      65.043   9.517   5.738  1.00  0.00    -0.206 OA
HETATM   10  O   UNL     1      63.229   7.856   6.315  1.00  0.00    -0.206 OA
BRANCH   8  11
HETATM   11  N   UNL     1      63.606   8.480   3.943  1.00  0.00    -0.225 NA
HETATM   12  H   UNL     1      64.142   7.943   3.261  1.00  0.00     0.136 HD
HETATM   13  H   UNL     1      63.607   9.465   3.677  1.00  0.00     0.136 HD
ENDBRANCH   8  11
ENDBRANCH   1   8
TORSDOF 2
ENDMDL
MODEL 7
REMARK VINA RESULT:      -3.7      3.632      4.910
REMARK  2 active torsions:
REMARK  status: ('A' for Active; 'I' for Inactive)
REMARK    1  A    between atoms: S_1  and  C_2 
REMARK    2  A    between atoms: S_1  and  N_5 
ROOT
HETATM    1  C   UNL     1      65.283   7.052   5.951  1.00  0.00     0.080 A 
HETATM    2  C   UNL     1      64.083   7.639   5.511  1.00  0.00    -0.039 A 
HETATM    3  C   UNL     1      65.301   5.735   6.435  1.00  0.00     0.025 A 
HETATM    4  C   UNL     1      63.948   9.046   4.996  1.00  0.00     0.050 C 
HETATM    5  C   UNL     1      62.901   6.883   5.621  1.00  0.00     0.008 A 
HETATM    6  C   UNL     1      64.118   5.004   6.522  1.00  0.00     0.002 A 
HETATM    7  C   UNL     1      62.918   5.581   6.125  1.00  0.00     0.001 A 
ENDROOT
BRANCH   1   8
HETATM    8  S   UNL     1      66.800   7.970   6.046  1.00  0.00     0.239 S 
HETATM    9  O   UNL     1      66.675   9.021   7.024  1.00  0.00    -0.206 OA
HETATM   10  O   UNL     1      67.301   8.216   4.712  1.00  0.00    -0.206 OA
BRANCH   8  11
HETATM   11  N   UNL     1      67.835   6.808   6.684  1.00  0.00    -0.225 NA
HETATM   12  H   UNL     1      67.492   6.513   7.598  1.00  0.00     0.136 HD
HETATM   13  H   UNL     1      68.770   7.203   6.784  1.00  0.00     0.136 HD
ENDBRANCH   8  11
ENDBRANCH   1   8
TORSDOF 2
ENDMDL
MODEL 8
REMARK VINA RESULT:      -3.6      4.598      5.443
REMARK  2 active torsions:
REMARK  status: ('A' for Active; 'I' for Inactive)
REMARK    1  A    between atoms: S_1  and  C_2 
REMARK    2  A    between atoms: S_1  and  N_5 
ROOT
HETATM    1  C   UNL     1      65.982   6.531   6.584  1.00  0.00     0.080 A 
HETATM    2  C   UNL     1      66.410   7.484   5.642  1.00  0.00    -0.039 A 
HETATM    3  C   UNL     1      64.614   6.322   6.821  1.00  0.00     0.025 A 
HETATM    4  C   UNL     1      67.846   7.802   5.327  1.00  0.00     0.050 C 
HETATM    5  C   UNL     1      65.427   8.251   4.989  1.00  0.00     0.008 A 
HETATM    6  C   UNL     1      63.661   7.086   6.152  1.00  0.00     0.002 A 
HETATM    7  C   UNL     1      64.069   8.057   5.244  1.00  0.00     0.001 A 
ENDROOT
BRANCH   1   8
HETATM    8  S   UNL     1      67.126   5.643   7.611  1.00  0.00     0.239 S 
HETATM    9  O   UNL     1      67.645   6.516   8.633  1.00  0.00    -0.206 OA
HETATM   10  O   UNL     1      67.989   4.830   6.783  1.00  0.00    -0.206 OA
BRANCH   8  11
HETATM   11  N   UNL     1      66.095   4.546   8.361  1.00  0.00    -0.225 NA
HETATM   12  H   UNL     1      65.321   5.050   8.795  1.00  0.00     0.136 HD
HETATM   13  H   UNL     1      66.608   4.031   9.077  1.00  0.00     0.136 HD
ENDBRANCH   8  11
ENDBRANCH   1   8
TORSDOF 2
ENDMDL
MODEL 9
REMARK VINA RESULT:      -3.6     13.224     14.225
REMARK  2 active torsions:
REMARK  status: ('A' for Active; 'I' for Inactive)
REMARK    1  A    between atoms: S_1  and  C_2 
REMARK    2  A    between atoms: S_1  and  N_5 
ROOT
HETATM    1  C   UNL     1      56.650   1.730  13.249  1.00  0.00     0.080 A 
HETATM    2  C   UNL     1      56.875   0.520  13.930  1.00  0.00    -0.039 A 
HETATM    3  C   UNL     1      57.704   2.394  12.600  1.00  0.00     0.025 A 
HETATM    4  C   UNL     1      55.825  -0.259  14.674  1.00  0.00     0.050 C 
HETATM    5  C   UNL     1      58.193   0.031  13.984  1.00  0.00     0.008 A 
HETATM    6  C   UNL     1      58.997   1.881  12.659  1.00  0.00     0.002 A 
HETATM    7  C   UNL     1      59.243   0.705  13.359  1.00  0.00     0.001 A 
ENDROOT
BRANCH   1   8
HETATM    8  S   UNL     1      55.074   2.547  13.276  1.00  0.00     0.239 S 
HETATM    9  O   UNL     1      54.017   1.573  13.178  1.00  0.00    -0.206 OA
HETATM   10  O   UNL     1      55.121   3.718  12.430  1.00  0.00    -0.206 OA
BRANCH   8  11
HETATM   11  N   UNL     1      55.057   3.153  14.845  1.00  0.00    -0.225 NA
HETATM   12  H   UNL     1      55.855   3.776  14.978  1.00  0.00     0.136 HD
HETATM   13  H   UNL     1      55.115   2.381  15.509  1.00  0.00     0.136 HD
ENDBRANCH   8  11
ENDBRANCH   1   8
TORSDOF 2
ENDMDL
