MODEL 1
REMARK VINA RESULT:      -4.1      0.000      0.000
REMARK  1 active torsions:
REMARK  status: ('A' for Active; 'I' for Inactive)
REMARK    1  A    between atoms: C_1  and  C_3 
ROOT
HETATM    1  C   UNL     1      62.393  10.378   3.862  1.00  0.00     0.120 A 
HETATM    2  O   UNL     1      62.042  11.665   3.555  1.00  0.00    -0.319 OA
HETATM    3  C   UNL     1      62.260   9.585   2.737  1.00  0.00     0.043 A 
HETATM    4  C   UNL     1      61.688  11.683   2.244  1.00  0.00     0.142 A 
HETATM    5  C   UNL     1      61.804  10.429   1.696  1.00  0.00     0.027 A 
ENDROOT
BRANCH   1   6
HETATM    6  C   UNL     1      62.820  10.056   5.206  1.00  0.00     0.179 C 
HETATM    7  O   UNL     1      63.046  10.912   6.062  1.00  0.00    -0.291 OA
HETATM    8  C   UNL     1      62.982   8.590   5.528  1.00  0.00     0.099 C 
ENDBRANCH   1   6
TORSDOF 1
ENDMDL
MODEL 2
REMARK VINA RESULT:      -3.9      1.812      3.574
REMARK  1 active torsions:
REMARK  status: ('A' for Active; 'I' for Inactive)
REMARK    1  A    between atoms: C_1  and  C_3 
ROOT
HETATM    1  C   UNL     1      63.871   9.380   5.058  1.00  0.00     0.120 A 
HETATM    2  O   UNL     1      65.056   9.249   5.730  1.00  0.00    -0.319 OA
HETATM    3  C   UNL     1      63.685   8.281   4.239  1.00  0.00     0.043 A 
HETATM    4  C   UNL     1      65.615   8.075   5.337  1.00  0.00     0.142 A 
HETATM    5  C   UNL     1      64.810   7.442   4.421  1.00  0.00     0.027 A 
ENDROOT
BRANCH   1   6
HETATM    6  C   UNL     1      63.049  10.549   5.280  1.00  0.00     0.179 C 
HETATM    7  O   UNL     1      63.101  11.220   6.311  1.00  0.00    -0.291 OA
HETATM    8  C   UNL     1      62.099  10.926   4.169  1.00  0.00     0.099 C 
ENDBRANCH   1   6
TORSDOF 1
ENDMDL
MODEL 3
REMARK VINA RESULT:      -3.8      1.494      2.227
REMARK  1 active torsions:
REMARK  status: ('A' for Active; 'I' for Inactive)
REMARK    1  A    between atoms: C_1  and  C_3 
ROOT
HETATM    1  C   UNL     1      61.821   9.930   3.038  1.00  0.00     0.120 A 
HETATM    2  O   UNL     1      61.185   8.761   3.358  1.00  0.00    -0.319 OA
HETATM    3  C   UNL     1      61.971  10.010   1.666  1.00  0.00     0.043 A 
HETATM    4  C   UNL     1      60.936   8.107   2.194  1.00  0.00     0.142 A 
HETATM    5  C   UNL     1      61.399   8.833   1.124  1.00  0.00     0.027 A 
ENDROOT
BRANCH   1   6
HETATM    6  C   UNL     1      62.213  10.840   4.092  1.00  0.00     0.179 C 
HETATM    7  O   UNL     1      61.954  12.044   4.070  1.00  0.00    -0.291 OA
HETATM    8  C   UNL     1      62.973  10.241   5.251  1.00  0.00     0.099 C 
ENDBRANCH   1   6
TORSDOF 1
ENDMDL
MODEL 4
REMARK VINA RESULT:      -3.8      1.123      3.107
REMARK  1 active torsions:
REMARK  status: ('A' for Active; 'I' for Inactive)
REMARK    1  A    between atoms: C_1  and  C_3 
ROOT
HETATM    1  C   UNL     1      62.450   9.844   3.828  1.00  0.00     0.120 A 
HETATM    2  O   UNL     1      62.754   9.503   5.118  1.00  0.00    -0.319 OA
HETATM    3  C   UNL     1      62.642   8.748   3.007  1.00  0.00     0.043 A 
HETATM    4  C   UNL     1      63.137   8.200   5.111  1.00  0.00     0.142 A 
HETATM    5  C   UNL     1      63.084   7.690   3.836  1.00  0.00     0.027 A 
ENDROOT
BRANCH   1   6
HETATM    6  C   UNL     1      62.008  11.188   3.530  1.00  0.00     0.179 C 
HETATM    7  O   UNL     1      61.827  12.043   4.398  1.00  0.00    -0.291 OA
HETATM    8  C   UNL     1      61.769  11.512   2.075  1.00  0.00     0.099 C 
ENDBRANCH   1   6
TORSDOF 1
ENDMDL
MODEL 5
REMARK VINA RESULT:      -3.8      2.134      2.985
REMARK  1 active torsions:
REMARK  status: ('A' for Active; 'I' for Inactive)
REMARK    1  A    between atoms: C_1  and  C_3 
ROOT
HETATM    1  C   UNL     1      64.201   9.183   5.089  1.00  0.00     0.120 A 
HETATM    2  O   UNL     1      63.972  10.366   5.739  1.00  0.00    -0.319 OA
HETATM    3  C   UNL     1      63.189   8.961   4.173  1.00  0.00     0.043 A 
HETATM    4  C   UNL     1      62.823  10.886   5.236  1.00  0.00     0.142 A 
HETATM    5  C   UNL     1      62.302  10.060   4.270  1.00  0.00     0.027 A 
ENDROOT
BRANCH   1   6
HETATM    6  C   UNL     1      65.370   8.400   5.423  1.00  0.00     0.179 C 
HETATM    7  O   UNL     1      66.138   8.697   6.338  1.00  0.00    -0.291 OA
HETATM    8  C   UNL     1      65.618   7.170   4.583  1.00  0.00     0.099 C 
ENDBRANCH   1   6
TORSDOF 1
ENDMDL
MODEL 6
REMARK VINA RESULT:      -3.7      1.073      3.271
REMARK  1 active torsions:
REMARK  status: ('A' for Active; 'I' for Inactive)
REMARK    1  A    between atoms: C_1  and  C_3 
ROOT
HETATM    1  C   UNL     1      62.283  10.596   3.547  1.00  0.00     0.120 A 
HETATM    2  O   UNL     1      62.228  11.601   4.475  1.00  0.00    -0.319 OA
HETATM    3  C   UNL     1      62.813   9.461   4.133  1.00  0.00     0.043 A 
HETATM    4  C   UNL     1      62.721  11.103   5.638  1.00  0.00     0.142 A 
HETATM    5  C   UNL     1      63.095   9.790   5.480  1.00  0.00     0.027 A 
ENDROOT
BRANCH   1   6
HETATM    6  C   UNL     1      61.818  10.841   2.200  1.00  0.00     0.179 C 
HETATM    7  O   UNL     1      61.582  11.969   1.767  1.00  0.00    -0.291 OA
HETATM    8  C   UNL     1      61.629   9.628   1.322  1.00  0.00     0.099 C 
ENDBRANCH   1   6
TORSDOF 1
ENDMDL
MODEL 7
REMARK VINA RESULT:      -3.5      1.979      2.579
REMARK  1 active torsions:
REMARK  status: ('A' for Active; 'I' for Inactive)
REMARK    1  A    between atoms: C_1  and  C_3 
ROOT
HETATM    1  C   UNL     1      63.664   9.193   4.641  1.00  0.00     0.120 A 
HETATM    2  O   UNL     1      63.212   8.822   3.403  1.00  0.00    -0.319 OA
HETATM    3  C   UNL     1      62.921  10.266   5.097  1.00  0.00     0.043 A 
HETATM    4  C   UNL     1      62.192   9.657   3.080  1.00  0.00     0.142 A 
HETATM    5  C   UNL     1      61.973  10.564   4.089  1.00  0.00     0.027 A 
ENDROOT
BRANCH   1   6
HETATM    6  C   UNL     1      64.760   8.470   5.247  1.00  0.00     0.179 C 
HETATM    7  O   UNL     1      65.577   8.998   6.001  1.00  0.00    -0.291 OA
HETATM    8  C   UNL     1      64.866   7.002   4.911  1.00  0.00     0.099 C 
ENDBRANCH   1   6
TORSDOF 1
ENDMDL
MODEL 8
REMARK VINA RESULT:      -3.5      3.486      5.459
REMARK  1 active torsions:
REMARK  status: ('A' for Active; 'I' for Inactive)
REMARK    1  A    between atoms: C_1  and  C_3 
ROOT
HETATM    1  C   UNL     1      65.738   8.076   5.620  1.00  0.00     0.120 A 
HETATM    2  O   UNL     1      65.781   7.584   6.896  1.00  0.00    -0.319 OA
HETATM    3  C   UNL     1      66.892   7.715   4.950  1.00  0.00     0.043 A 
HETATM    4  C   UNL     1      66.956   6.917   7.031  1.00  0.00     0.142 A 
HETATM    5  C   UNL     1      67.676   6.968   5.863  1.00  0.00     0.027 A 
ENDROOT
BRANCH   1   6
HETATM    6  C   UNL     1      64.588   8.839   5.187  1.00  0.00     0.179 C 
HETATM    7  O   UNL     1      64.318   9.956   5.630  1.00  0.00    -0.291 OA
HETATM    8  C   UNL     1      63.707   8.196   4.143  1.00  0.00     0.099 C 
ENDBRANCH   1   6
TORSDOF 1
ENDMDL
MODEL 9
REMARK VINA RESULT:      -3.3      1.983      3.890
REMARK  1 active torsions:
REMARK  status: ('A' for Active; 'I' for Inactive)
REMARK    1  A    between atoms: C_1  and  C_3 
ROOT
HETATM    1  C   UNL     1      62.546   9.368   3.157  1.00  0.00     0.120 A 
HETATM    2  O   UNL     1      63.255   8.213   2.964  1.00  0.00    -0.319 OA
HETATM    3  C   UNL     1      62.660   9.761   4.478  1.00  0.00     0.043 A 
HETATM    4  C   UNL     1      63.811   7.878   4.156  1.00  0.00     0.142 A 
HETATM    5  C   UNL     1      63.476   8.798   5.120  1.00  0.00     0.027 A 
ENDROOT
BRANCH   1   6
HETATM    6  C   UNL     1      61.839   9.966   2.046  1.00  0.00     0.179 C 
HETATM    7  O   UNL     1      61.295   9.304   1.162  1.00  0.00    -0.291 OA
HETATM    8  C   UNL     1      61.792  11.475   2.011  1.00  0.00     0.099 C 
ENDBRANCH   1   6
TORSDOF 1
ENDMDL
