MODEL 1
REMARK VINA RESULT:      -4.9      0.000      0.000
REMARK  3 active torsions:
REMARK  status: ('A' for Active; 'I' for Inactive)
REMARK    1  A    between atoms: C_1  and  O_2 
REMARK    2  A    between atoms: O_2  and  C_3 
REMARK    3  A    between atoms: C_4  and  N_8 
ROOT
HETATM    1  C   UNL     1      63.156   9.249   4.917  1.00  0.00     0.104 A 
HETATM    2  C   UNL     1      62.887  10.611   5.182  1.00  0.00     0.059 A 
HETATM    3  C   UNL     1      62.779   8.695   3.693  1.00  0.00     0.039 A 
HETATM    4  C   UNL     1      62.230  11.375   4.216  1.00  0.00     0.032 A 
HETATM    5  C   UNL     1      62.082   9.462   2.756  1.00  0.00     0.003 A 
HETATM    6  C   UNL     1      61.794  10.799   3.023  1.00  0.00     0.002 A 
ENDROOT
BRANCH   1   7
HETATM    7  O   UNL     1      63.781   8.574   5.931  1.00  0.00    -0.253 OA
BRANCH   7   8
HETATM    8  C   UNL     1      64.971   7.871   5.613  1.00  0.00     0.530 C 
HETATM    9  F   UNL     1      64.742   6.666   5.044  1.00  0.00    -0.144 F 
HETATM   10  F   UNL     1      65.657   7.653   6.759  1.00  0.00    -0.144 F 
HETATM   11  F   UNL     1      65.744   8.611   4.792  1.00  0.00    -0.144 F 
ENDBRANCH   7   8
ENDBRANCH   1   7
BRANCH   2  12
HETATM   12  N   UNL     1      63.455  11.246   6.300  1.00  0.00    -0.397 N 
HETATM   13  H   UNL     1      64.345  10.974   6.621  1.00  0.00     0.156 HD
HETATM   14  H   UNL     1      62.963  11.963   6.762  1.00  0.00     0.156 HD
ENDBRANCH   2  12
TORSDOF 3
ENDMDL
MODEL 2
REMARK VINA RESULT:      -4.9      1.120      1.427
REMARK  3 active torsions:
REMARK  status: ('A' for Active; 'I' for Inactive)
REMARK    1  A    between atoms: C_1  and  O_2 
REMARK    2  A    between atoms: O_2  and  C_3 
REMARK    3  A    between atoms: C_4  and  N_8 
ROOT
HETATM    1  C   UNL     1      63.402   9.288   4.784  1.00  0.00     0.104 A 
HETATM    2  C   UNL     1      62.982  10.587   5.147  1.00  0.00     0.059 A 
HETATM    3  C   UNL     1      63.029   8.759   3.548  1.00  0.00     0.039 A 
HETATM    4  C   UNL     1      62.182  11.314   4.263  1.00  0.00     0.032 A 
HETATM    5  C   UNL     1      62.190   9.482   2.696  1.00  0.00     0.003 A 
HETATM    6  C   UNL     1      61.754  10.754   3.059  1.00  0.00     0.002 A 
ENDROOT
BRANCH   1   7
HETATM    7  O   UNL     1      64.163   8.642   5.723  1.00  0.00    -0.253 OA
BRANCH   7   8
HETATM    8  C   UNL     1      63.702   7.382   6.184  1.00  0.00     0.530 C 
HETATM    9  F   UNL     1      63.684   6.435   5.219  1.00  0.00    -0.144 F 
HETATM   10  F   UNL     1      62.433   7.530   6.631  1.00  0.00    -0.144 F 
HETATM   11  F   UNL     1      64.464   6.956   7.212  1.00  0.00    -0.144 F 
ENDBRANCH   7   8
ENDBRANCH   1   7
BRANCH   2  12
HETATM   12  N   UNL     1      63.529  11.226   6.273  1.00  0.00    -0.397 N 
HETATM   13  H   UNL     1      64.414  11.652   6.215  1.00  0.00     0.156 HD
HETATM   14  H   UNL     1      63.026  11.248   7.119  1.00  0.00     0.156 HD
ENDBRANCH   2  12
TORSDOF 3
ENDMDL
MODEL 3
REMARK VINA RESULT:      -4.5      2.009      2.731
REMARK  3 active torsions:
REMARK  status: ('A' for Active; 'I' for Inactive)
REMARK    1  A    between atoms: C_1  and  O_2 
REMARK    2  A    between atoms: O_2  and  C_3 
REMARK    3  A    between atoms: C_4  and  N_8 
ROOT
HETATM    1  C   UNL     1      62.481   9.184   3.783  1.00  0.00     0.104 A 
HETATM    2  C   UNL     1      62.398   8.878   2.406  1.00  0.00     0.059 A 
HETATM    3  C   UNL     1      62.191  10.475   4.224  1.00  0.00     0.039 A 
HETATM    4  C   UNL     1      62.042   9.883   1.506  1.00  0.00     0.032 A 
HETATM    5  C   UNL     1      61.881  11.481   3.305  1.00  0.00     0.003 A 
HETATM    6  C   UNL     1      61.822  11.190   1.944  1.00  0.00     0.002 A 
ENDROOT
BRANCH   1   7
HETATM    7  O   UNL     1      62.860   8.141   4.587  1.00  0.00    -0.253 OA
BRANCH   7   8
HETATM    8  C   UNL     1      64.212   8.101   5.013  1.00  0.00     0.530 C 
HETATM    9  F   UNL     1      64.741   9.328   5.220  1.00  0.00    -0.144 F 
HETATM   10  F   UNL     1      64.946   7.501   4.048  1.00  0.00    -0.144 F 
HETATM   11  F   UNL     1      64.322   7.372   6.143  1.00  0.00    -0.144 F 
ENDBRANCH   7   8
ENDBRANCH   1   7
BRANCH   2  12
HETATM   12  N   UNL     1      62.459   7.544   1.967  1.00  0.00    -0.397 N 
HETATM   13  H   UNL     1      63.062   6.906   2.412  1.00  0.00     0.156 HD
HETATM   14  H   UNL     1      61.897   7.248   1.214  1.00  0.00     0.156 HD
ENDBRANCH   2  12
TORSDOF 3
ENDMDL
MODEL 4
REMARK VINA RESULT:      -4.3      2.675      4.745
REMARK  3 active torsions:
REMARK  status: ('A' for Active; 'I' for Inactive)
REMARK    1  A    between atoms: C_1  and  O_2 
REMARK    2  A    between atoms: O_2  and  C_3 
REMARK    3  A    between atoms: C_4  and  N_8 
ROOT
HETATM    1  C   UNL     1      66.098   7.746   5.070  1.00  0.00     0.104 A 
HETATM    2  C   UNL     1      66.942   7.563   6.189  1.00  0.00     0.059 A 
HETATM    3  C   UNL     1      65.958   6.722   4.134  1.00  0.00     0.039 A 
HETATM    4  C   UNL     1      67.636   6.360   6.327  1.00  0.00     0.032 A 
HETATM    5  C   UNL     1      66.696   5.542   4.264  1.00  0.00     0.003 A 
HETATM    6  C   UNL     1      67.547   5.366   5.352  1.00  0.00     0.002 A 
ENDROOT
BRANCH   1   7
HETATM    7  O   UNL     1      65.478   8.966   5.006  1.00  0.00    -0.253 OA
BRANCH   7   8
HETATM    8  C   UNL     1      64.060   8.981   5.044  1.00  0.00     0.530 C 
HETATM    9  F   UNL     1      63.539   8.028   5.849  1.00  0.00    -0.144 F 
HETATM   10  F   UNL     1      63.597   8.754   3.793  1.00  0.00    -0.144 F 
HETATM   11  F   UNL     1      63.619  10.192   5.444  1.00  0.00    -0.144 F 
ENDBRANCH   7   8
ENDBRANCH   1   7
BRANCH   2  12
HETATM   12  N   UNL     1      66.922   8.479   7.255  1.00  0.00    -0.397 N 
HETATM   13  H   UNL     1      67.454   8.302   8.065  1.00  0.00     0.156 HD
HETATM   14  H   UNL     1      66.379   9.297   7.191  1.00  0.00     0.156 HD
ENDBRANCH   2  12
TORSDOF 3
ENDMDL
MODEL 5
REMARK VINA RESULT:      -4.1      3.127      5.499
REMARK  3 active torsions:
REMARK  status: ('A' for Active; 'I' for Inactive)
REMARK    1  A    between atoms: C_1  and  O_2 
REMARK    2  A    between atoms: O_2  and  C_3 
REMARK    3  A    between atoms: C_4  and  N_8 
ROOT
HETATM    1  C   UNL     1      66.614   7.532   6.027  1.00  0.00     0.104 A 
HETATM    2  C   UNL     1      67.107   6.498   5.200  1.00  0.00     0.059 A 
HETATM    3  C   UNL     1      66.711   7.414   7.414  1.00  0.00     0.039 A 
HETATM    4  C   UNL     1      67.668   5.364   5.789  1.00  0.00     0.032 A 
HETATM    5  C   UNL     1      67.234   6.252   7.988  1.00  0.00     0.003 A 
HETATM    6  C   UNL     1      67.699   5.220   7.177  1.00  0.00     0.002 A 
ENDROOT
BRANCH   1   7
HETATM    7  O   UNL     1      66.060   8.593   5.361  1.00  0.00    -0.253 OA
BRANCH   7   8
HETATM    8  C   UNL     1      64.659   8.567   5.139  1.00  0.00     0.530 C 
HETATM    9  F   UNL     1      64.326   8.188   3.885  1.00  0.00    -0.144 F 
HETATM   10  F   UNL     1      64.174   9.816   5.328  1.00  0.00    -0.144 F 
HETATM   11  F   UNL     1      64.064   7.743   6.026  1.00  0.00    -0.144 F 
ENDBRANCH   7   8
ENDBRANCH   1   7
BRANCH   2  12
HETATM   12  N   UNL     1      67.231   6.691   3.813  1.00  0.00    -0.397 N 
HETATM   13  H   UNL     1      68.107   6.582   3.377  1.00  0.00     0.156 HD
HETATM   14  H   UNL     1      66.441   6.934   3.277  1.00  0.00     0.156 HD
ENDBRANCH   2  12
TORSDOF 3
ENDMDL
MODEL 6
REMARK VINA RESULT:      -4.1      3.381      5.367
REMARK  3 active torsions:
REMARK  status: ('A' for Active; 'I' for Inactive)
REMARK    1  A    between atoms: C_1  and  O_2 
REMARK    2  A    between atoms: O_2  and  C_3 
REMARK    3  A    between atoms: C_4  and  N_8 
ROOT
HETATM    1  C   UNL     1      65.450   6.406   7.126  1.00  0.00     0.104 A 
HETATM    2  C   UNL     1      66.670   7.061   6.842  1.00  0.00     0.059 A 
HETATM    3  C   UNL     1      65.423   5.017   7.253  1.00  0.00     0.039 A 
HETATM    4  C   UNL     1      67.828   6.299   6.677  1.00  0.00     0.032 A 
HETATM    5  C   UNL     1      66.581   4.267   7.039  1.00  0.00     0.003 A 
HETATM    6  C   UNL     1      67.782   4.905   6.735  1.00  0.00     0.002 A 
ENDROOT
BRANCH   1   7
HETATM    7  O   UNL     1      64.364   7.233   7.249  1.00  0.00    -0.253 OA
BRANCH   7   8
HETATM    8  C   UNL     1      63.362   7.149   6.248  1.00  0.00     0.530 C 
HETATM    9  F   UNL     1      62.469   6.159   6.471  1.00  0.00    -0.144 F 
HETATM   10  F   UNL     1      63.963   6.893   5.063  1.00  0.00    -0.144 F 
HETATM   11  F   UNL     1      62.708   8.324   6.145  1.00  0.00    -0.144 F 
ENDBRANCH   7   8
ENDBRANCH   1   7
BRANCH   2  12
HETATM   12  N   UNL     1      66.768   8.459   6.937  1.00  0.00    -0.397 N 
HETATM   13  H   UNL     1      65.968   9.019   6.812  1.00  0.00     0.156 HD
HETATM   14  H   UNL     1      67.637   8.880   7.131  1.00  0.00     0.156 HD
ENDBRANCH   2  12
TORSDOF 3
ENDMDL
MODEL 7
REMARK VINA RESULT:      -4.0      3.329      4.371
REMARK  3 active torsions:
REMARK  status: ('A' for Active; 'I' for Inactive)
REMARK    1  A    between atoms: C_1  and  O_2 
REMARK    2  A    between atoms: O_2  and  C_3 
REMARK    3  A    between atoms: C_4  and  N_8 
ROOT
HETATM    1  C   UNL     1      62.157   9.819   3.921  1.00  0.00     0.104 A 
HETATM    2  C   UNL     1      63.084   9.873   4.987  1.00  0.00     0.059 A 
HETATM    3  C   UNL     1      61.780   8.583   3.396  1.00  0.00     0.039 A 
HETATM    4  C   UNL     1      63.620   8.684   5.484  1.00  0.00     0.032 A 
HETATM    5  C   UNL     1      62.360   7.406   3.874  1.00  0.00     0.003 A 
HETATM    6  C   UNL     1      63.292   7.456   4.908  1.00  0.00     0.002 A 
ENDROOT
BRANCH   1   7
HETATM    7  O   UNL     1      61.704  11.035   3.484  1.00  0.00    -0.253 OA
BRANCH   7   8
HETATM    8  C   UNL     1      61.723  11.277   2.087  1.00  0.00     0.530 C 
HETATM    9  F   UNL     1      61.674  12.591   1.773  1.00  0.00    -0.144 F 
HETATM   10  F   UNL     1      60.635  10.689   1.538  1.00  0.00    -0.144 F 
HETATM   11  F   UNL     1      62.824  10.728   1.534  1.00  0.00    -0.144 F 
ENDBRANCH   7   8
ENDBRANCH   1   7
BRANCH   2  12
HETATM   12  N   UNL     1      63.304  11.076   5.681  1.00  0.00    -0.397 N 
HETATM   13  H   UNL     1      62.550  11.681   5.867  1.00  0.00     0.156 HD
HETATM   14  H   UNL     1      64.211  11.312   5.982  1.00  0.00     0.156 HD
ENDBRANCH   2  12
TORSDOF 3
ENDMDL
MODEL 8
REMARK VINA RESULT:      -3.9      4.487      5.226
REMARK  3 active torsions:
REMARK  status: ('A' for Active; 'I' for Inactive)
REMARK    1  A    between atoms: C_1  and  O_2 
REMARK    2  A    between atoms: O_2  and  C_3 
REMARK    3  A    between atoms: C_4  and  N_8 
ROOT
HETATM    1  C   UNL     1      66.200   6.266   6.642  1.00  0.00     0.104 A 
HETATM    2  C   UNL     1      66.314   7.450   5.879  1.00  0.00     0.059 A 
HETATM    3  C   UNL     1      66.608   5.050   6.096  1.00  0.00     0.039 A 
HETATM    4  C   UNL     1      66.821   7.376   4.581  1.00  0.00     0.032 A 
HETATM    5  C   UNL     1      67.069   4.986   4.779  1.00  0.00     0.003 A 
HETATM    6  C   UNL     1      67.162   6.147   4.015  1.00  0.00     0.002 A 
ENDROOT
BRANCH   1   7
HETATM    7  O   UNL     1      65.670   6.433   7.895  1.00  0.00    -0.253 OA
BRANCH   7   8
HETATM    8  C   UNL     1      66.528   6.210   9.002  1.00  0.00     0.530 C 
HETATM    9  F   UNL     1      66.052   6.730  10.157  1.00  0.00    -0.144 F 
HETATM   10  F   UNL     1      67.716   6.805   8.749  1.00  0.00    -0.144 F 
HETATM   11  F   UNL     1      66.743   4.888   9.165  1.00  0.00    -0.144 F 
ENDBRANCH   7   8
ENDBRANCH   1   7
BRANCH   2  12
HETATM   12  N   UNL     1      66.129   8.707   6.480  1.00  0.00    -0.397 N 
HETATM   13  H   UNL     1      66.289   9.529   5.962  1.00  0.00     0.156 HD
HETATM   14  H   UNL     1      65.838   8.766   7.419  1.00  0.00     0.156 HD
ENDBRANCH   2  12
TORSDOF 3
ENDMDL
MODEL 9
REMARK VINA RESULT:      -3.8      2.649      3.515
REMARK  3 active torsions:
REMARK  status: ('A' for Active; 'I' for Inactive)
REMARK    1  A    between atoms: C_1  and  O_2 
REMARK    2  A    between atoms: O_2  and  C_3 
REMARK    3  A    between atoms: C_4  and  N_8 
ROOT
HETATM    1  C   UNL     1      62.857   8.859   3.387  1.00  0.00     0.104 A 
HETATM    2  C   UNL     1      62.057   9.884   2.831  1.00  0.00     0.059 A 
HETATM    3  C   UNL     1      63.409   9.025   4.656  1.00  0.00     0.039 A 
HETATM    4  C   UNL     1      61.848  11.055   3.561  1.00  0.00     0.032 A 
HETATM    5  C   UNL     1      63.228  10.222   5.354  1.00  0.00     0.003 A 
HETATM    6  C   UNL     1      62.460  11.244   4.801  1.00  0.00     0.002 A 
ENDROOT
BRANCH   1   7
HETATM    7  O   UNL     1      63.025   7.759   2.589  1.00  0.00    -0.253 OA
BRANCH   7   8
HETATM    8  C   UNL     1      62.425   6.545   3.012  1.00  0.00     0.530 C 
HETATM    9  F   UNL     1      63.181   5.858   3.898  1.00  0.00    -0.144 F 
HETATM   10  F   UNL     1      62.251   5.754   1.928  1.00  0.00    -0.144 F 
HETATM   11  F   UNL     1      61.215   6.790   3.555  1.00  0.00    -0.144 F 
ENDBRANCH   7   8
ENDBRANCH   1   7
BRANCH   2  12
HETATM   12  N   UNL     1      61.307   9.651   1.665  1.00  0.00    -0.397 N 
HETATM   13  H   UNL     1      60.575   8.993   1.675  1.00  0.00     0.156 HD
HETATM   14  H   UNL     1      61.514  10.146   0.840  1.00  0.00     0.156 HD
ENDBRANCH   2  12
TORSDOF 3
ENDMDL
