MODEL 1
REMARK VINA RESULT:      -5.4      0.000      0.000
REMARK  3 active torsions:
REMARK  status: ('A' for Active; 'I' for Inactive)
REMARK    1  A    between atoms: N_1  and  C_2 
REMARK    2  A    between atoms: C_2  and  C_9 
REMARK    3  A    between atoms: C_7  and  N_8 
ROOT
HETATM    1  N   UNL     1      64.085   7.826   5.691  1.00  0.00    -0.067 N 
HETATM    2  C   UNL     1      66.565   7.930   5.455  1.00  0.00     0.060 C 
HETATM    3  C   UNL     1      65.545   6.735   7.388  1.00  0.00     0.060 C 
HETATM    4  C   UNL     1      65.203   7.904   4.744  1.00  0.00     0.237 C 
HETATM    5  C   UNL     1      64.217   6.702   6.626  1.00  0.00     0.237 C 
HETATM    6  C   UNL     1      66.702   6.728   6.390  1.00  0.00     0.186 C 
HETATM    7  H   UNL     1      64.136   8.674   6.256  1.00  0.00     0.280 HD
ENDROOT
BRANCH   1   8
HETATM    8  C   UNL     1      62.762   7.864   5.027  1.00  0.00     0.273 C 
BRANCH   8   9
HETATM    9  C   UNL     1      62.491   9.031   4.098  1.00  0.00    -0.033 A 
HETATM   10  C   UNL     1      62.389  10.341   4.602  1.00  0.00     0.009 A 
HETATM   11  C   UNL     1      62.023  11.402   3.766  1.00  0.00     0.001 A 
HETATM   12  C   UNL     1      61.804  11.176   2.411  1.00  0.00     0.000 A 
HETATM   13  C   UNL     1      61.969   9.898   1.882  1.00  0.00     0.001 A 
HETATM   14  C   UNL     1      62.306   8.831   2.724  1.00  0.00     0.009 A 
ENDBRANCH   8   9
ENDBRANCH   1   8
BRANCH   6  15
HETATM   15  N   UNL     1      67.982   6.729   7.096  1.00  0.00    -0.075 N 
HETATM   16  H   UNL     1      68.611   6.054   6.662  1.00  0.00     0.274 HD
HETATM   17  H   UNL     1      67.833   6.475   8.072  1.00  0.00     0.274 HD
HETATM   18  H   UNL     1      68.398   7.659   7.047  1.00  0.00     0.274 HD
ENDBRANCH   6  15
TORSDOF 3
ENDMDL
MODEL 2
REMARK VINA RESULT:      -5.4      0.524      1.384
REMARK  3 active torsions:
REMARK  status: ('A' for Active; 'I' for Inactive)
REMARK    1  A    between atoms: N_1  and  C_2 
REMARK    2  A    between atoms: C_2  and  C_9 
REMARK    3  A    between atoms: C_7  and  N_8 
ROOT
HETATM    1  N   UNL     1      63.967   7.567   5.314  1.00  0.00    -0.067 N 
HETATM    2  C   UNL     1      65.489   6.145   6.684  1.00  0.00     0.060 C 
HETATM    3  C   UNL     1      66.423   7.979   5.280  1.00  0.00     0.060 C 
HETATM    4  C   UNL     1      64.093   6.771   6.539  1.00  0.00     0.237 C 
HETATM    5  C   UNL     1      65.019   8.585   5.193  1.00  0.00     0.237 C 
HETATM    6  C   UNL     1      66.569   7.225   6.601  1.00  0.00     0.186 C 
HETATM    7  H   UNL     1      64.109   6.917   4.540  1.00  0.00     0.280 HD
ENDROOT
BRANCH   1   8
HETATM    8  C   UNL     1      62.609   8.126   5.126  1.00  0.00     0.273 C 
BRANCH   8   9
HETATM    9  C   UNL     1      62.415   9.087   3.968  1.00  0.00    -0.033 A 
HETATM   10  C   UNL     1      62.188  10.456   4.202  1.00  0.00     0.009 A 
HETATM   11  C   UNL     1      61.891  11.323   3.144  1.00  0.00     0.001 A 
HETATM   12  C   UNL     1      61.866  10.842   1.838  1.00  0.00     0.000 A 
HETATM   13  C   UNL     1      62.158   9.504   1.582  1.00  0.00     0.001 A 
HETATM   14  C   UNL     1      62.426   8.632   2.643  1.00  0.00     0.009 A 
ENDBRANCH   8   9
ENDBRANCH   1   8
BRANCH   6  15
HETATM   15  N   UNL     1      67.914   6.663   6.719  1.00  0.00    -0.075 N 
HETATM   16  H   UNL     1      68.404   7.112   7.491  1.00  0.00     0.274 HD
HETATM   17  H   UNL     1      68.426   6.822   5.852  1.00  0.00     0.274 HD
HETATM   18  H   UNL     1      67.849   5.660   6.896  1.00  0.00     0.274 HD
ENDBRANCH   6  15
TORSDOF 3
ENDMDL
MODEL 3
REMARK VINA RESULT:      -5.0      0.954      2.046
REMARK  3 active torsions:
REMARK  status: ('A' for Active; 'I' for Inactive)
REMARK    1  A    between atoms: N_1  and  C_2 
REMARK    2  A    between atoms: C_2  and  C_9 
REMARK    3  A    between atoms: C_7  and  N_8 
ROOT
HETATM    1  N   UNL     1      63.991   7.783   5.280  1.00  0.00    -0.067 N 
HETATM    2  C   UNL     1      64.708   5.580   6.202  1.00  0.00     0.060 C 
HETATM    3  C   UNL     1      66.380   7.094   5.144  1.00  0.00     0.060 C 
HETATM    4  C   UNL     1      63.729   6.761   6.299  1.00  0.00     0.237 C 
HETATM    5  C   UNL     1      65.384   8.247   5.294  1.00  0.00     0.237 C 
HETATM    6  C   UNL     1      66.152   6.078   6.263  1.00  0.00     0.186 C 
HETATM    7  H   UNL     1      63.852   7.325   4.379  1.00  0.00     0.280 HD
ENDROOT
BRANCH   1   8
HETATM    8  C   UNL     1      63.018   8.899   5.318  1.00  0.00     0.273 C 
BRANCH   8   9
HETATM    9  C   UNL     1      62.559   9.457   3.985  1.00  0.00    -0.033 A 
HETATM   10  C   UNL     1      62.613   8.669   2.820  1.00  0.00     0.009 A 
HETATM   11  C   UNL     1      62.302   9.218   1.571  1.00  0.00     0.001 A 
HETATM   12  C   UNL     1      61.887  10.544   1.478  1.00  0.00     0.000 A 
HETATM   13  C   UNL     1      61.760  11.317   2.629  1.00  0.00     0.001 A 
HETATM   14  C   UNL     1      62.100  10.777   3.875  1.00  0.00     0.009 A 
ENDBRANCH   8   9
ENDBRANCH   1   8
BRANCH   6  15
HETATM   15  N   UNL     1      67.113   4.981   6.157  1.00  0.00    -0.075 N 
HETATM   16  H   UNL     1      67.292   4.779   5.174  1.00  0.00     0.274 HD
HETATM   17  H   UNL     1      66.733   4.151   6.611  1.00  0.00     0.274 HD
HETATM   18  H   UNL     1      67.986   5.247   6.613  1.00  0.00     0.274 HD
ENDBRANCH   6  15
TORSDOF 3
ENDMDL
MODEL 4
REMARK VINA RESULT:      -4.7      1.590      1.969
REMARK  3 active torsions:
REMARK  status: ('A' for Active; 'I' for Inactive)
REMARK    1  A    between atoms: N_1  and  C_2 
REMARK    2  A    between atoms: C_2  and  C_9 
REMARK    3  A    between atoms: C_7  and  N_8 
ROOT
HETATM    1  N   UNL     1      63.481   6.999   4.363  1.00  0.00    -0.067 N 
HETATM    2  C   UNL     1      65.831   7.210   5.170  1.00  0.00     0.060 C 
HETATM    3  C   UNL     1      65.274   5.591   3.361  1.00  0.00     0.060 C 
HETATM    4  C   UNL     1      64.481   7.907   4.936  1.00  0.00     0.237 C 
HETATM    5  C   UNL     1      63.956   6.339   3.141  1.00  0.00     0.237 C 
HETATM    6  C   UNL     1      66.331   6.567   3.876  1.00  0.00     0.186 C 
HETATM    7  H   UNL     1      63.345   6.259   5.052  1.00  0.00     0.280 HD
ENDROOT
BRANCH   1   8
HETATM    8  C   UNL     1      62.156   7.636   4.189  1.00  0.00     0.273 C 
BRANCH   8   9
HETATM    9  C   UNL     1      62.119   8.952   3.436  1.00  0.00    -0.033 A 
HETATM   10  C   UNL     1      62.059  10.175   4.131  1.00  0.00     0.009 A 
HETATM   11  C   UNL     1      61.905  11.382   3.440  1.00  0.00     0.001 A 
HETATM   12  C   UNL     1      61.860  11.386   2.049  1.00  0.00     0.000 A 
HETATM   13  C   UNL     1      61.989  10.192   1.344  1.00  0.00     0.001 A 
HETATM   14  C   UNL     1      62.113   8.982   2.036  1.00  0.00     0.009 A 
ENDBRANCH   8   9
ENDBRANCH   1   8
BRANCH   6  15
HETATM   15  N   UNL     1      67.608   5.880   4.066  1.00  0.00    -0.075 N 
HETATM   16  H   UNL     1      67.440   4.888   4.231  1.00  0.00     0.274 HD
HETATM   17  H   UNL     1      68.094   6.281   4.868  1.00  0.00     0.274 HD
HETATM   18  H   UNL     1      68.183   5.993   3.230  1.00  0.00     0.274 HD
ENDBRANCH   6  15
TORSDOF 3
ENDMDL
MODEL 5
REMARK VINA RESULT:      -4.7      1.841      5.837
REMARK  3 active torsions:
REMARK  status: ('A' for Active; 'I' for Inactive)
REMARK    1  A    between atoms: N_1  and  C_2 
REMARK    2  A    between atoms: C_2  and  C_9 
REMARK    3  A    between atoms: C_7  and  N_8 
ROOT
HETATM    1  N   UNL     1      63.368   8.563   4.648  1.00  0.00    -0.067 N 
HETATM    2  C   UNL     1      62.533  10.896   4.371  1.00  0.00     0.060 C 
HETATM    3  C   UNL     1      62.444   9.304   2.458  1.00  0.00     0.060 C 
HETATM    4  C   UNL     1      62.751   9.710   5.324  1.00  0.00     0.237 C 
HETATM    5  C   UNL     1      62.627   8.151   3.449  1.00  0.00     0.237 C 
HETATM    6  C   UNL     1      61.723  10.459   3.151  1.00  0.00     0.186 C 
HETATM    7  H   UNL     1      64.280   8.885   4.324  1.00  0.00     0.280 HD
ENDROOT
BRANCH   1   8
HETATM    8  C   UNL     1      63.642   7.433   5.565  1.00  0.00     0.273 C 
BRANCH   8   9
HETATM    9  C   UNL     1      65.097   7.060   5.780  1.00  0.00    -0.033 A 
HETATM   10  C   UNL     1      65.571   6.728   7.062  1.00  0.00     0.009 A 
HETATM   11  C   UNL     1      66.933   6.499   7.284  1.00  0.00     0.001 A 
HETATM   12  C   UNL     1      67.829   6.550   6.220  1.00  0.00     0.000 A 
HETATM   13  C   UNL     1      67.366   6.808   4.932  1.00  0.00     0.001 A 
HETATM   14  C   UNL     1      66.008   7.066   4.715  1.00  0.00     0.009 A 
ENDBRANCH   8   9
ENDBRANCH   1   8
BRANCH   6  15
HETATM   15  N   UNL     1      61.510  11.561   2.213  1.00  0.00    -0.075 N 
HETATM   16  H   UNL     1      60.802  12.193   2.586  1.00  0.00     0.274 HD
HETATM   17  H   UNL     1      61.196  11.189   1.317  1.00  0.00     0.274 HD
HETATM   18  H   UNL     1      62.384  12.071   2.083  1.00  0.00     0.274 HD
ENDBRANCH   6  15
TORSDOF 3
ENDMDL
MODEL 6
REMARK VINA RESULT:      -4.4      3.347      4.993
REMARK  3 active torsions:
REMARK  status: ('A' for Active; 'I' for Inactive)
REMARK    1  A    between atoms: N_1  and  C_2 
REMARK    2  A    between atoms: C_2  and  C_9 
REMARK    3  A    between atoms: C_7  and  N_8 
ROOT
HETATM    1  N   UNL     1      60.967   6.905   5.082  1.00  0.00    -0.067 N 
HETATM    2  C   UNL     1      60.241   5.895   7.243  1.00  0.00     0.060 C 
HETATM    3  C   UNL     1      58.621   6.117   5.363  1.00  0.00     0.060 C 
HETATM    4  C   UNL     1      61.392   6.131   6.254  1.00  0.00     0.237 C 
HETATM    5  C   UNL     1      59.803   6.313   4.410  1.00  0.00     0.237 C 
HETATM    6  C   UNL     1      59.055   5.238   6.535  1.00  0.00     0.186 C 
HETATM    7  H   UNL     1      60.660   7.809   5.439  1.00  0.00     0.280 HD
ENDROOT
BRANCH   1   8
HETATM    8  C   UNL     1      62.078   7.196   4.148  1.00  0.00     0.273 C 
BRANCH   8   9
HETATM    9  C   UNL     1      61.985   8.481   3.349  1.00  0.00    -0.033 A 
HETATM   10  C   UNL     1      62.029   8.457   1.942  1.00  0.00     0.009 A 
HETATM   11  C   UNL     1      62.063   9.648   1.208  1.00  0.00     0.001 A 
HETATM   12  C   UNL     1      62.005  10.873   1.866  1.00  0.00     0.000 A 
HETATM   13  C   UNL     1      61.891  10.914   3.253  1.00  0.00     0.001 A 
HETATM   14  C   UNL     1      61.886   9.723   3.990  1.00  0.00     0.009 A 
ENDBRANCH   8   9
ENDBRANCH   1   8
BRANCH   6  15
HETATM   15  N   UNL     1      57.932   5.012   7.445  1.00  0.00    -0.075 N 
HETATM   16  H   UNL     1      58.222   5.219   8.401  1.00  0.00     0.274 HD
HETATM   17  H   UNL     1      57.635   4.039   7.383  1.00  0.00     0.274 HD
HETATM   18  H   UNL     1      57.157   5.622   7.186  1.00  0.00     0.274 HD
ENDBRANCH   6  15
TORSDOF 3
ENDMDL
MODEL 7
REMARK VINA RESULT:      -4.3      3.444      4.880
REMARK  3 active torsions:
REMARK  status: ('A' for Active; 'I' for Inactive)
REMARK    1  A    between atoms: N_1  and  C_2 
REMARK    2  A    between atoms: C_2  and  C_9 
REMARK    3  A    between atoms: C_7  and  N_8 
ROOT
HETATM    1  N   UNL     1      61.405   8.883   3.542  1.00  0.00    -0.067 N 
HETATM    2  C   UNL     1      62.190  11.125   4.300  1.00  0.00     0.060 C 
HETATM    3  C   UNL     1      62.861   9.078   5.552  1.00  0.00     0.060 C 
HETATM    4  C   UNL     1      61.768  10.240   3.117  1.00  0.00     0.237 C 
HETATM    5  C   UNL     1      62.461   8.241   4.335  1.00  0.00     0.237 C 
HETATM    6  C   UNL     1      63.319  10.460   5.088  1.00  0.00     0.186 C 
HETATM    7  H   UNL     1      60.604   8.988   4.165  1.00  0.00     0.280 HD
ENDROOT
BRANCH   1   8
HETATM    8  C   UNL     1      60.936   8.034   2.423  1.00  0.00     0.273 C 
BRANCH   8   9
HETATM    9  C   UNL     1      59.471   7.642   2.424  1.00  0.00    -0.033 A 
HETATM   10  C   UNL     1      58.748   7.569   3.629  1.00  0.00     0.009 A 
HETATM   11  C   UNL     1      57.432   7.095   3.646  1.00  0.00     0.001 A 
HETATM   12  C   UNL     1      56.808   6.735   2.455  1.00  0.00     0.000 A 
HETATM   13  C   UNL     1      57.485   6.868   1.245  1.00  0.00     0.001 A 
HETATM   14  C   UNL     1      58.811   7.314   1.232  1.00  0.00     0.009 A 
ENDBRANCH   8   9
ENDBRANCH   1   8
BRANCH   6  15
HETATM   15  N   UNL     1      63.736  11.269   6.233  1.00  0.00    -0.075 N 
HETATM   16  H   UNL     1      63.765  10.687   7.069  1.00  0.00     0.274 HD
HETATM   17  H   UNL     1      63.072  12.030   6.371  1.00  0.00     0.274 HD
HETATM   18  H   UNL     1      64.663  11.656   6.057  1.00  0.00     0.274 HD
ENDBRANCH   6  15
TORSDOF 3
ENDMDL
MODEL 8
REMARK VINA RESULT:      -4.3      4.061      5.904
REMARK  3 active torsions:
REMARK  status: ('A' for Active; 'I' for Inactive)
REMARK    1  A    between atoms: N_1  and  C_2 
REMARK    2  A    between atoms: C_2  and  C_9 
REMARK    3  A    between atoms: C_7  and  N_8 
ROOT
HETATM    1  N   UNL     1      59.912   6.979   4.582  1.00  0.00    -0.067 N 
HETATM    2  C   UNL     1      58.425   5.787   6.190  1.00  0.00     0.060 C 
HETATM    3  C   UNL     1      57.446   7.308   4.478  1.00  0.00     0.060 C 
HETATM    4  C   UNL     1      59.740   5.770   5.395  1.00  0.00     0.237 C 
HETATM    5  C   UNL     1      58.764   7.232   3.702  1.00  0.00     0.237 C 
HETATM    6  C   UNL     1      57.238   6.008   5.252  1.00  0.00     0.186 C 
HETATM    7  H   UNL     1      59.944   7.758   5.239  1.00  0.00     0.280 HD
ENDROOT
BRANCH   1   8
HETATM    8  C   UNL     1      61.202   7.008   3.857  1.00  0.00     0.273 C 
BRANCH   8   9
HETATM    9  C   UNL     1      61.569   8.303   3.156  1.00  0.00    -0.033 A 
HETATM   10  C   UNL     1      61.672   9.506   3.879  1.00  0.00     0.009 A 
HETATM   11  C   UNL     1      61.892  10.720   3.219  1.00  0.00     0.001 A 
HETATM   12  C   UNL     1      62.061  10.739   1.837  1.00  0.00     0.000 A 
HETATM   13  C   UNL     1      62.032   9.548   1.115  1.00  0.00     0.001 A 
HETATM   14  C   UNL     1      61.782   8.338   1.772  1.00  0.00     0.009 A 
ENDBRANCH   8   9
ENDBRANCH   1   8
BRANCH   6  15
HETATM   15  N   UNL     1      55.968   6.046   5.978  1.00  0.00    -0.075 N 
HETATM   16  H   UNL     1      55.573   5.107   6.022  1.00  0.00     0.274 HD
HETATM   17  H   UNL     1      55.319   6.666   5.496  1.00  0.00     0.274 HD
HETATM   18  H   UNL     1      56.128   6.391   6.925  1.00  0.00     0.274 HD
ENDBRANCH   6  15
TORSDOF 3
ENDMDL
MODEL 9
REMARK VINA RESULT:      -4.2      1.909      6.111
REMARK  3 active torsions:
REMARK  status: ('A' for Active; 'I' for Inactive)
REMARK    1  A    between atoms: N_1  and  C_2 
REMARK    2  A    between atoms: C_2  and  C_9 
REMARK    3  A    between atoms: C_7  and  N_8 
ROOT
HETATM    1  N   UNL     1      63.884   7.082   4.864  1.00  0.00    -0.067 N 
HETATM    2  C   UNL     1      61.887   7.943   3.645  1.00  0.00     0.060 C 
HETATM    3  C   UNL     1      63.409   9.526   4.820  1.00  0.00     0.060 C 
HETATM    4  C   UNL     1      62.973   6.860   3.735  1.00  0.00     0.237 C 
HETATM    5  C   UNL     1      64.474   8.426   4.855  1.00  0.00     0.237 C 
HETATM    6  C   UNL     1      62.521   9.333   3.591  1.00  0.00     0.186 C 
HETATM    7  H   UNL     1      63.308   7.029   5.704  1.00  0.00     0.280 HD
ENDROOT
BRANCH   1   8
HETATM    8  C   UNL     1      64.900   6.014   5.004  1.00  0.00     0.273 C 
BRANCH   8   9
HETATM    9  C   UNL     1      65.833   6.105   6.196  1.00  0.00    -0.033 A 
HETATM   10  C   UNL     1      67.223   5.955   6.034  1.00  0.00     0.009 A 
HETATM   11  C   UNL     1      68.073   5.920   7.145  1.00  0.00     0.001 A 
HETATM   12  C   UNL     1      67.551   6.083   8.424  1.00  0.00     0.000 A 
HETATM   13  C   UNL     1      66.187   6.303   8.598  1.00  0.00     0.001 A 
HETATM   14  C   UNL     1      65.333   6.308   7.489  1.00  0.00     0.009 A 
ENDBRANCH   8   9
ENDBRANCH   1   8
BRANCH   6  15
HETATM   15  N   UNL     1      61.514  10.391   3.521  1.00  0.00    -0.075 N 
HETATM   16  H   UNL     1      61.804  11.177   4.101  1.00  0.00     0.274 HD
HETATM   17  H   UNL     1      60.620  10.032   3.857  1.00  0.00     0.274 HD
HETATM   18  H   UNL     1      61.413  10.702   2.555  1.00  0.00     0.274 HD
ENDBRANCH   6  15
TORSDOF 3
ENDMDL
