MODEL 1
REMARK VINA RESULT:      -4.3      0.000      0.000
REMARK  3 active torsions:
REMARK  status: ('A' for Active; 'I' for Inactive)
REMARK    1  A    between atoms: C_1  and  C_5 
REMARK    2  A    between atoms: C_2  and  N_8 
REMARK    3  A    between atoms: C_5  and  O_9 
ROOT
HETATM    1  C   UNL     1      63.742   8.612   5.013  1.00  0.00     0.106 A 
HETATM    2  C   UNL     1      63.212   9.880   4.847  1.00  0.00     0.055 A 
HETATM    3  S   UNL     1      63.323   7.605   3.688  1.00  0.00    -0.093 SA
HETATM    4  C   UNL     1      62.463  10.035   3.636  1.00  0.00    -0.028 A 
HETATM    5  C   UNL     1      62.455   8.854   2.919  1.00  0.00     0.059 A 
HETATM    6  C   UNL     1      61.781  11.286   3.192  1.00  0.00     0.051 C 
ENDROOT
BRANCH   1   7
HETATM    7  C   UNL     1      64.548   8.128   6.123  1.00  0.00     0.302 C 
HETATM    8  O   UNL     1      64.209   7.245   6.907  1.00  0.00    -0.259 OA
BRANCH   7   9
HETATM    9  O   UNL     1      65.749   8.777   6.200  1.00  0.00    -0.322 OA
HETATM   10  C   UNL     1      66.882   7.910   6.221  1.00  0.00     0.213 C 
ENDBRANCH   7   9
ENDBRANCH   1   7
BRANCH   2  11
HETATM   11  N   UNL     1      63.381  10.879   5.736  1.00  0.00    -0.397 N 
HETATM   12  H   UNL     1      62.685  11.568   5.840  1.00  0.00     0.156 HD
HETATM   13  H   UNL     1      64.199  10.920   6.282  1.00  0.00     0.156 HD
ENDBRANCH   2  11
TORSDOF 3
ENDMDL
MODEL 2
REMARK VINA RESULT:      -4.1      1.235      1.528
REMARK  3 active torsions:
REMARK  status: ('A' for Active; 'I' for Inactive)
REMARK    1  A    between atoms: C_1  and  C_5 
REMARK    2  A    between atoms: C_2  and  N_8 
REMARK    3  A    between atoms: C_5  and  O_9 
ROOT
HETATM    1  C   UNL     1      64.632   8.199   5.019  1.00  0.00     0.106 A 
HETATM    2  C   UNL     1      63.759   9.270   4.937  1.00  0.00     0.055 A 
HETATM    3  S   UNL     1      64.330   7.076   3.757  1.00  0.00    -0.093 SA
HETATM    4  C   UNL     1      62.840   9.179   3.842  1.00  0.00    -0.028 A 
HETATM    5  C   UNL     1      63.058   8.018   3.124  1.00  0.00     0.059 A 
HETATM    6  C   UNL     1      61.788  10.183   3.505  1.00  0.00     0.051 C 
ENDROOT
BRANCH   1   7
HETATM    7  C   UNL     1      65.682   7.988   6.003  1.00  0.00     0.302 C 
HETATM    8  O   UNL     1      66.332   8.882   6.541  1.00  0.00    -0.259 OA
BRANCH   7   9
HETATM    9  O   UNL     1      65.872   6.660   6.269  1.00  0.00    -0.322 OA
HETATM   10  C   UNL     1      65.784   6.322   7.652  1.00  0.00     0.213 C 
ENDBRANCH   7   9
ENDBRANCH   1   7
BRANCH   2  11
HETATM   11  N   UNL     1      63.767  10.305   5.801  1.00  0.00    -0.397 N 
HETATM   12  H   UNL     1      64.131  11.176   5.523  1.00  0.00     0.156 HD
HETATM   13  H   UNL     1      63.407  10.189   6.710  1.00  0.00     0.156 HD
ENDBRANCH   2  11
TORSDOF 3
ENDMDL
MODEL 3
REMARK VINA RESULT:      -4.1      1.864      2.102
REMARK  3 active torsions:
REMARK  status: ('A' for Active; 'I' for Inactive)
REMARK    1  A    between atoms: C_1  and  C_5 
REMARK    2  A    between atoms: C_2  and  N_8 
REMARK    3  A    between atoms: C_5  and  O_9 
ROOT
HETATM    1  C   UNL     1      63.598   8.885   4.657  1.00  0.00     0.106 A 
HETATM    2  C   UNL     1      63.114   8.525   3.411  1.00  0.00     0.055 A 
HETATM    3  S   UNL     1      62.936  10.391   5.148  1.00  0.00    -0.093 SA
HETATM    4  C   UNL     1      62.199   9.475   2.853  1.00  0.00    -0.028 A 
HETATM    5  C   UNL     1      62.023  10.540   3.716  1.00  0.00     0.059 A 
HETATM    6  C   UNL     1      61.521   9.353   1.529  1.00  0.00     0.051 C 
ENDROOT
BRANCH   1   7
HETATM    7  C   UNL     1      64.532   8.146   5.491  1.00  0.00     0.302 C 
HETATM    8  O   UNL     1      64.449   6.947   5.747  1.00  0.00    -0.259 OA
BRANCH   7   9
HETATM    9  O   UNL     1      65.533   8.947   5.967  1.00  0.00    -0.322 OA
HETATM   10  C   UNL     1      66.653   8.234   6.490  1.00  0.00     0.213 C 
ENDBRANCH   7   9
ENDBRANCH   1   7
BRANCH   2  11
HETATM   11  N   UNL     1      63.465   7.388   2.777  1.00  0.00    -0.397 N 
HETATM   12  H   UNL     1      62.833   6.635   2.729  1.00  0.00     0.156 HD
HETATM   13  H   UNL     1      64.354   7.311   2.361  1.00  0.00     0.156 HD
ENDBRANCH   2  11
TORSDOF 3
ENDMDL
MODEL 4
REMARK VINA RESULT:      -4.1      2.638      5.143
REMARK  3 active torsions:
REMARK  status: ('A' for Active; 'I' for Inactive)
REMARK    1  A    between atoms: C_1  and  C_5 
REMARK    2  A    between atoms: C_2  and  N_8 
REMARK    3  A    between atoms: C_5  and  O_9 
ROOT
HETATM    1  C   UNL     1      65.391   7.260   6.274  1.00  0.00     0.106 A 
HETATM    2  C   UNL     1      66.423   7.407   7.186  1.00  0.00     0.055 A 
HETATM    3  S   UNL     1      64.737   5.676   6.354  1.00  0.00    -0.093 SA
HETATM    4  C   UNL     1      66.682   6.226   7.954  1.00  0.00    -0.028 A 
HETATM    5  C   UNL     1      65.819   5.211   7.586  1.00  0.00     0.059 A 
HETATM    6  C   UNL     1      67.731   6.089   9.008  1.00  0.00     0.051 C 
ENDROOT
BRANCH   1   7
HETATM    7  C   UNL     1      64.878   8.260   5.351  1.00  0.00     0.302 C 
HETATM    8  O   UNL     1      64.815   9.465   5.583  1.00  0.00    -0.259 OA
BRANCH   7   9
HETATM    9  O   UNL     1      64.466   7.701   4.173  1.00  0.00    -0.322 OA
HETATM   10  C   UNL     1      63.281   8.283   3.633  1.00  0.00     0.213 C 
ENDBRANCH   7   9
ENDBRANCH   1   7
BRANCH   2  11
HETATM   11  N   UNL     1      67.122   8.549   7.342  1.00  0.00    -0.397 N 
HETATM   12  H   UNL     1      66.966   9.118   8.130  1.00  0.00     0.156 HD
HETATM   13  H   UNL     1      67.788   8.814   6.667  1.00  0.00     0.156 HD
ENDBRANCH   2  11
TORSDOF 3
ENDMDL
MODEL 5
REMARK VINA RESULT:      -3.8      1.722      2.202
REMARK  3 active torsions:
REMARK  status: ('A' for Active; 'I' for Inactive)
REMARK    1  A    between atoms: C_1  and  C_5 
REMARK    2  A    between atoms: C_2  and  N_8 
REMARK    3  A    between atoms: C_5  and  O_9 
ROOT
HETATM    1  C   UNL     1      62.479   7.917   5.121  1.00  0.00     0.106 A 
HETATM    2  C   UNL     1      62.643   9.271   4.888  1.00  0.00     0.055 A 
HETATM    3  S   UNL     1      61.477   7.214   3.918  1.00  0.00    -0.093 SA
HETATM    4  C   UNL     1      61.953   9.742   3.725  1.00  0.00    -0.028 A 
HETATM    5  C   UNL     1      61.278   8.703   3.111  1.00  0.00     0.059 A 
HETATM    6  C   UNL     1      61.947  11.149   3.229  1.00  0.00     0.051 C 
ENDROOT
BRANCH   1   7
HETATM    7  C   UNL     1      63.045   7.131   6.207  1.00  0.00     0.302 C 
HETATM    8  O   UNL     1      63.943   7.510   6.955  1.00  0.00    -0.259 OA
BRANCH   7   9
HETATM    9  O   UNL     1      62.457   5.901   6.305  1.00  0.00    -0.322 OA
HETATM   10  C   UNL     1      63.377   4.810   6.295  1.00  0.00     0.213 C 
ENDBRANCH   7   9
ENDBRANCH   1   7
BRANCH   2  11
HETATM   11  N   UNL     1      63.382  10.078   5.677  1.00  0.00    -0.397 N 
HETATM   12  H   UNL     1      64.365  10.039   5.639  1.00  0.00     0.156 HD
HETATM   13  H   UNL     1      62.938  10.707   6.290  1.00  0.00     0.156 HD
ENDBRANCH   2  11
TORSDOF 3
ENDMDL
MODEL 6
REMARK VINA RESULT:      -3.6      2.060      2.675
REMARK  3 active torsions:
REMARK  status: ('A' for Active; 'I' for Inactive)
REMARK    1  A    between atoms: C_1  and  C_5 
REMARK    2  A    between atoms: C_2  and  N_8 
REMARK    3  A    between atoms: C_5  and  O_9 
ROOT
HETATM    1  C   UNL     1      63.065   8.394   4.068  1.00  0.00     0.106 A 
HETATM    2  C   UNL     1      62.232   8.914   3.093  1.00  0.00     0.055 A 
HETATM    3  S   UNL     1      63.893   7.010   3.480  1.00  0.00    -0.093 SA
HETATM    4  C   UNL     1      62.267   8.186   1.860  1.00  0.00    -0.028 A 
HETATM    5  C   UNL     1      63.143   7.121   1.953  1.00  0.00     0.059 A 
HETATM    6  C   UNL     1      61.477   8.513   0.636  1.00  0.00     0.051 C 
ENDROOT
BRANCH   1   7
HETATM    7  C   UNL     1      63.266   8.894   5.419  1.00  0.00     0.302 C 
HETATM    8  O   UNL     1      62.879   8.333   6.441  1.00  0.00    -0.259 OA
BRANCH   7   9
HETATM    9  O   UNL     1      63.945  10.081   5.428  1.00  0.00    -0.322 OA
HETATM   10  C   UNL     1      63.198  11.178   5.950  1.00  0.00     0.213 C 
ENDBRANCH   7   9
ENDBRANCH   1   7
BRANCH   2  11
HETATM   11  N   UNL     1      61.459  10.003   3.278  1.00  0.00    -0.397 N 
HETATM   12  H   UNL     1      60.524   9.899   3.569  1.00  0.00     0.156 HD
HETATM   13  H   UNL     1      61.829  10.901   3.122  1.00  0.00     0.156 HD
ENDBRANCH   2  11
TORSDOF 3
ENDMDL
MODEL 7
REMARK VINA RESULT:      -3.5      2.471      4.221
REMARK  3 active torsions:
REMARK  status: ('A' for Active; 'I' for Inactive)
REMARK    1  A    between atoms: C_1  and  C_5 
REMARK    2  A    between atoms: C_2  and  N_8 
REMARK    3  A    between atoms: C_5  and  O_9 
ROOT
HETATM    1  C   UNL     1      63.446   8.325   3.908  1.00  0.00     0.106 A 
HETATM    2  C   UNL     1      64.244   8.765   4.950  1.00  0.00     0.055 A 
HETATM    3  S   UNL     1      64.051   6.853   3.264  1.00  0.00    -0.093 SA
HETATM    4  C   UNL     1      65.353   7.901   5.228  1.00  0.00    -0.028 A 
HETATM    5  C   UNL     1      65.350   6.819   4.368  1.00  0.00     0.059 A 
HETATM    6  C   UNL     1      66.377   8.119   6.292  1.00  0.00     0.051 C 
ENDROOT
BRANCH   1   7
HETATM    7  C   UNL     1      62.251   8.963   3.380  1.00  0.00     0.302 C 
HETATM    8  O   UNL     1      61.635   9.871   3.933  1.00  0.00    -0.259 OA
BRANCH   7   9
HETATM    9  O   UNL     1      61.879   8.431   2.176  1.00  0.00    -0.322 OA
HETATM   10  C   UNL     1      62.075   9.304   1.065  1.00  0.00     0.213 C 
ENDBRANCH   7   9
ENDBRANCH   1   7
BRANCH   2  11
HETATM   11  N   UNL     1      64.008   9.897   5.642  1.00  0.00    -0.397 N 
HETATM   12  H   UNL     1      63.277   9.928   6.301  1.00  0.00     0.156 HD
HETATM   13  H   UNL     1      64.567  10.693   5.489  1.00  0.00     0.156 HD
ENDBRANCH   2  11
TORSDOF 3
ENDMDL
MODEL 8
REMARK VINA RESULT:      -3.3      4.033      6.059
REMARK  3 active torsions:
REMARK  status: ('A' for Active; 'I' for Inactive)
REMARK    1  A    between atoms: C_1  and  C_5 
REMARK    2  A    between atoms: C_2  and  N_8 
REMARK    3  A    between atoms: C_5  and  O_9 
ROOT
HETATM    1  C   UNL     1      65.251   6.172   7.024  1.00  0.00     0.106 A 
HETATM    2  C   UNL     1      65.588   4.909   7.481  1.00  0.00     0.055 A 
HETATM    3  S   UNL     1      66.577   7.248   7.193  1.00  0.00    -0.093 SA
HETATM    4  C   UNL     1      66.931   4.814   7.970  1.00  0.00    -0.028 A 
HETATM    5  C   UNL     1      67.571   6.035   7.862  1.00  0.00     0.059 A 
HETATM    6  C   UNL     1      67.569   3.583   8.522  1.00  0.00     0.051 C 
ENDROOT
BRANCH   1   7
HETATM    7  C   UNL     1      63.978   6.600   6.466  1.00  0.00     0.302 C 
HETATM    8  O   UNL     1      63.297   7.527   6.898  1.00  0.00    -0.259 OA
BRANCH   7   9
HETATM    9  O   UNL     1      63.615   5.843   5.387  1.00  0.00    -0.322 OA
HETATM   10  C   UNL     1      64.284   6.192   4.176  1.00  0.00     0.213 C 
ENDBRANCH   7   9
ENDBRANCH   1   7
BRANCH   2  11
HETATM   11  N   UNL     1      64.738   3.863   7.470  1.00  0.00    -0.397 N 
HETATM   12  H   UNL     1      63.766   4.018   7.437  1.00  0.00     0.156 HD
HETATM   13  H   UNL     1      65.089   2.944   7.495  1.00  0.00     0.156 HD
ENDBRANCH   2  11
TORSDOF 3
ENDMDL
MODEL 9
REMARK VINA RESULT:      -3.3      3.179      4.136
REMARK  3 active torsions:
REMARK  status: ('A' for Active; 'I' for Inactive)
REMARK    1  A    between atoms: C_1  and  C_5 
REMARK    2  A    between atoms: C_2  and  N_8 
REMARK    3  A    between atoms: C_5  and  O_9 
ROOT
HETATM    1  C   UNL     1      66.311   6.078   6.593  1.00  0.00     0.106 A 
HETATM    2  C   UNL     1      65.228   6.895   6.316  1.00  0.00     0.055 A 
HETATM    3  S   UNL     1      67.590   6.375   5.488  1.00  0.00    -0.093 SA
HETATM    4  C   UNL     1      65.439   7.768   5.200  1.00  0.00    -0.028 A 
HETATM    5  C   UNL     1      66.699   7.573   4.665  1.00  0.00     0.059 A 
HETATM    6  C   UNL     1      64.452   8.755   4.672  1.00  0.00     0.051 C 
ENDROOT
BRANCH   1   7
HETATM    7  C   UNL     1      66.423   5.089   7.653  1.00  0.00     0.302 C 
HETATM    8  O   UNL     1      65.522   4.332   8.007  1.00  0.00    -0.259 OA
BRANCH   7   9
HETATM    9  O   UNL     1      67.665   5.094   8.225  1.00  0.00    -0.322 OA
HETATM   10  C   UNL     1      67.823   6.049   9.272  1.00  0.00     0.213 C 
ENDBRANCH   7   9
ENDBRANCH   1   7
BRANCH   2  11
HETATM   11  N   UNL     1      64.081   6.877   7.023  1.00  0.00    -0.397 N 
HETATM   12  H   UNL     1      63.585   7.713   7.179  1.00  0.00     0.156 HD
HETATM   13  H   UNL     1      63.739   6.027   7.385  1.00  0.00     0.156 HD
ENDBRANCH   2  11
TORSDOF 3
ENDMDL
