MODEL 1
REMARK VINA RESULT:      -3.4      0.000      0.000
REMARK  2 active torsions:
REMARK  status: ('A' for Active; 'I' for Inactive)
REMARK    1  A    between atoms: C_3  and  C_7 
REMARK    2  A    between atoms: C_7  and  C_8 
ROOT
HETATM    1  N   UNL     1      61.675  10.986   2.397  1.00  0.00    -0.363 N 
ATOM      2  HN  UNL     1      61.270  11.609   1.698  1.00  0.00     0.165 HD
HETATM    3  C   UNL     1      62.080   9.754   2.170  1.00  0.00     0.050 A 
HETATM    4  S   UNL     1      62.711   8.922   3.541  1.00  0.00    -0.087 SA
HETATM    5  C   UNL     1      61.882  11.309   3.723  1.00  0.00     0.095 A 
HETATM    6  C   UNL     1      62.438  10.314   4.498  1.00  0.00     0.068 A 
ENDROOT
BRANCH   3   7
HETATM    7  C   UNL     1      62.004   9.066   0.841  1.00  0.00     0.064 C 
BRANCH   7   8
HETATM    8  C   UNL     1      61.102   7.831   0.852  1.00  0.00     0.002 C 
HETATM    9  C   UNL     1      59.650   8.129   0.502  1.00  0.00     0.005 C 
ENDBRANCH   7   8
ENDBRANCH   3   7
TORSDOF 2
ENDMDL
MODEL 2
REMARK VINA RESULT:      -3.3      2.643      3.735
REMARK  2 active torsions:
REMARK  status: ('A' for Active; 'I' for Inactive)
REMARK    1  A    between atoms: C_3  and  C_7 
REMARK    2  A    between atoms: C_7  and  C_8 
ROOT
HETATM    1  N   UNL     1      64.274   9.158   5.335  1.00  0.00    -0.363 N 
ATOM      2  HN  UNL     1      64.870   9.976   5.468  1.00  0.00     0.165 HD
HETATM    3  C   UNL     1      63.071   9.177   4.801  1.00  0.00     0.050 A 
HETATM    4  S   UNL     1      62.280   7.649   4.714  1.00  0.00    -0.087 SA
HETATM    5  C   UNL     1      64.608   7.867   5.688  1.00  0.00     0.095 A 
HETATM    6  C   UNL     1      63.651   6.910   5.425  1.00  0.00     0.068 A 
ENDROOT
BRANCH   3   7
HETATM    7  C   UNL     1      62.380  10.411   4.305  1.00  0.00     0.064 C 
BRANCH   7   8
HETATM    8  C   UNL     1      61.921  10.302   2.850  1.00  0.00     0.002 C 
HETATM    9  C   UNL     1      61.807  11.644   2.141  1.00  0.00     0.005 C 
ENDBRANCH   7   8
ENDBRANCH   3   7
TORSDOF 2
ENDMDL
MODEL 3
REMARK VINA RESULT:      -3.2      3.301      4.765
REMARK  2 active torsions:
REMARK  status: ('A' for Active; 'I' for Inactive)
REMARK    1  A    between atoms: C_3  and  C_7 
REMARK    2  A    between atoms: C_7  and  C_8 
ROOT
HETATM    1  N   UNL     1      63.891   9.789   5.608  1.00  0.00    -0.363 N 
ATOM      2  HN  UNL     1      64.525   9.849   6.405  1.00  0.00     0.165 HD
HETATM    3  C   UNL     1      63.902   8.836   4.700  1.00  0.00     0.050 A 
HETATM    4  S   UNL     1      62.726   8.993   3.451  1.00  0.00    -0.087 SA
HETATM    5  C   UNL     1      62.892  10.696   5.319  1.00  0.00     0.095 A 
HETATM    6  C   UNL     1      62.152  10.428   4.188  1.00  0.00     0.068 A 
ENDROOT
BRANCH   3   7
HETATM    7  C   UNL     1      64.858   7.682   4.692  1.00  0.00     0.064 C 
BRANCH   7   8
HETATM    8  C   UNL     1      66.127   7.944   5.504  1.00  0.00     0.002 C 
HETATM    9  C   UNL     1      67.414   7.668   4.737  1.00  0.00     0.005 C 
ENDBRANCH   7   8
ENDBRANCH   3   7
TORSDOF 2
ENDMDL
MODEL 4
REMARK VINA RESULT:      -3.1      4.067      5.198
REMARK  2 active torsions:
REMARK  status: ('A' for Active; 'I' for Inactive)
REMARK    1  A    between atoms: C_3  and  C_7 
REMARK    2  A    between atoms: C_7  and  C_8 
ROOT
HETATM    1  N   UNL     1      65.559   8.651   6.208  1.00  0.00    -0.363 N 
ATOM      2  HN  UNL     1      65.091   9.376   6.752  1.00  0.00     0.165 HD
HETATM    3  C   UNL     1      65.105   8.137   5.084  1.00  0.00     0.050 A 
HETATM    4  S   UNL     1      66.092   6.912   4.382  1.00  0.00    -0.087 SA
HETATM    5  C   UNL     1      66.761   8.061   6.539  1.00  0.00     0.095 A 
HETATM    6  C   UNL     1      67.212   7.096   5.664  1.00  0.00     0.068 A 
ENDROOT
BRANCH   3   7
HETATM    7  C   UNL     1      63.819   8.536   4.425  1.00  0.00     0.064 C 
BRANCH   7   8
HETATM    8  C   UNL     1      63.145   9.734   5.094  1.00  0.00     0.002 C 
HETATM    9  C   UNL     1      62.198  10.497   4.176  1.00  0.00     0.005 C 
ENDBRANCH   7   8
ENDBRANCH   3   7
TORSDOF 2
ENDMDL
MODEL 5
REMARK VINA RESULT:      -3.1      4.752      5.976
REMARK  2 active torsions:
REMARK  status: ('A' for Active; 'I' for Inactive)
REMARK    1  A    between atoms: C_3  and  C_7 
REMARK    2  A    between atoms: C_7  and  C_8 
ROOT
HETATM    1  N   UNL     1      64.853   7.241   6.994  1.00  0.00    -0.363 N 
ATOM      2  HN  UNL     1      63.857   7.293   7.207  1.00  0.00     0.165 HD
HETATM    3  C   UNL     1      65.432   7.784   5.943  1.00  0.00     0.050 A 
HETATM    4  S   UNL     1      67.131   7.525   5.822  1.00  0.00    -0.087 SA
HETATM    5  C   UNL     1      65.796   6.591   7.762  1.00  0.00     0.095 A 
HETATM    6  C   UNL     1      67.089   6.639   7.286  1.00  0.00     0.068 A 
ENDROOT
BRANCH   3   7
HETATM    7  C   UNL     1      64.713   8.565   4.885  1.00  0.00     0.064 C 
BRANCH   7   8
HETATM    8  C   UNL     1      63.261   8.878   5.249  1.00  0.00     0.002 C 
HETATM    9  C   UNL     1      62.940  10.367   5.269  1.00  0.00     0.005 C 
ENDBRANCH   7   8
ENDBRANCH   3   7
TORSDOF 2
ENDMDL
MODEL 6
REMARK VINA RESULT:      -3.0      1.901      3.874
REMARK  2 active torsions:
REMARK  status: ('A' for Active; 'I' for Inactive)
REMARK    1  A    between atoms: C_3  and  C_7 
REMARK    2  A    between atoms: C_7  and  C_8 
ROOT
HETATM    1  N   UNL     1      62.113  10.904   3.479  1.00  0.00    -0.363 N 
ATOM      2  HN  UNL     1      62.076  11.695   4.122  1.00  0.00     0.165 HD
HETATM    3  C   UNL     1      62.520   9.692   3.793  1.00  0.00     0.050 A 
HETATM    4  S   UNL     1      62.494   8.550   2.503  1.00  0.00    -0.087 SA
HETATM    5  C   UNL     1      61.746  10.944   2.150  1.00  0.00     0.095 A 
HETATM    6  C   UNL     1      61.881   9.759   1.459  1.00  0.00     0.068 A 
ENDROOT
BRANCH   3   7
HETATM    7  C   UNL     1      62.999   9.282   5.152  1.00  0.00     0.064 C 
BRANCH   7   8
HETATM    8  C   UNL     1      64.454   8.811   5.162  1.00  0.00     0.002 C 
HETATM    9  C   UNL     1      64.631   7.374   5.636  1.00  0.00     0.005 C 
ENDBRANCH   7   8
ENDBRANCH   3   7
TORSDOF 2
ENDMDL
MODEL 7
REMARK VINA RESULT:      -2.9      2.090      3.878
REMARK  2 active torsions:
REMARK  status: ('A' for Active; 'I' for Inactive)
REMARK    1  A    between atoms: C_3  and  C_7 
REMARK    2  A    between atoms: C_7  and  C_8 
ROOT
HETATM    1  N   UNL     1      59.376   8.574   1.008  1.00  0.00    -0.363 N 
ATOM      2  HN  UNL     1      59.085   9.494   0.678  1.00  0.00     0.165 HD
HETATM    3  C   UNL     1      60.624   8.196   1.193  1.00  0.00     0.050 A 
HETATM    4  S   UNL     1      60.829   6.576   1.742  1.00  0.00    -0.087 SA
HETATM    5  C   UNL     1      58.523   7.537   1.326  1.00  0.00     0.095 A 
HETATM    6  C   UNL     1      59.130   6.373   1.746  1.00  0.00     0.068 A 
ENDROOT
BRANCH   3   7
HETATM    7  C   UNL     1      61.820   9.064   0.944  1.00  0.00     0.064 C 
BRANCH   7   8
HETATM    8  C   UNL     1      61.858  10.308   1.832  1.00  0.00     0.002 C 
HETATM    9  C   UNL     1      61.887   9.998   3.323  1.00  0.00     0.005 C 
ENDBRANCH   7   8
ENDBRANCH   3   7
TORSDOF 2
ENDMDL
MODEL 8
REMARK VINA RESULT:      -2.9     13.867     14.432
REMARK  2 active torsions:
REMARK  status: ('A' for Active; 'I' for Inactive)
REMARK    1  A    between atoms: C_3  and  C_7 
REMARK    2  A    between atoms: C_7  and  C_8 
ROOT
HETATM    1  N   UNL     1      56.034   2.170  14.401  1.00  0.00    -0.363 N 
ATOM      2  HN  UNL     1      55.973   2.049  15.412  1.00  0.00     0.165 HD
HETATM    3  C   UNL     1      57.107   1.940  13.674  1.00  0.00     0.050 A 
HETATM    4  S   UNL     1      56.934   2.246  11.987  1.00  0.00    -0.087 SA
HETATM    5  C   UNL     1      55.005   2.601  13.590  1.00  0.00     0.095 A 
HETATM    6  C   UNL     1      55.305   2.702  12.248  1.00  0.00     0.068 A 
ENDROOT
BRANCH   3   7
HETATM    7  C   UNL     1      58.419   1.464  14.222  1.00  0.00     0.064 C 
BRANCH   7   8
HETATM    8  C   UNL     1      59.578   1.628  13.238  1.00  0.00     0.002 C 
HETATM    9  C   UNL     1      60.178   0.308  12.772  1.00  0.00     0.005 C 
ENDBRANCH   7   8
ENDBRANCH   3   7
TORSDOF 2
ENDMDL
MODEL 9
REMARK VINA RESULT:      -2.9      6.891      8.075
REMARK  2 active torsions:
REMARK  status: ('A' for Active; 'I' for Inactive)
REMARK    1  A    between atoms: C_3  and  C_7 
REMARK    2  A    between atoms: C_7  and  C_8 
ROOT
HETATM    1  N   UNL     1      67.322   7.203   8.384  1.00  0.00    -0.363 N 
ATOM      2  HN  UNL     1      67.601   8.159   8.606  1.00  0.00     0.165 HD
HETATM    3  C   UNL     1      66.574   6.852   7.359  1.00  0.00     0.050 A 
HETATM    4  S   UNL     1      66.242   5.166   7.233  1.00  0.00    -0.087 SA
HETATM    5  C   UNL     1      67.669   6.085   9.114  1.00  0.00     0.095 A 
HETATM    6  C   UNL     1      67.177   4.888   8.640  1.00  0.00     0.068 A 
ENDROOT
BRANCH   3   7
HETATM    7  C   UNL     1      66.010   7.807   6.351  1.00  0.00     0.064 C 
BRANCH   7   8
HETATM    8  C   UNL     1      66.592   7.619   4.950  1.00  0.00     0.002 C 
HETATM    9  C   UNL     1      68.075   7.952   4.851  1.00  0.00     0.005 C 
ENDBRANCH   7   8
ENDBRANCH   3   7
TORSDOF 2
ENDMDL
