MODEL 1
REMARK VINA RESULT:      -3.8      0.000      0.000
REMARK  0 active torsions:
REMARK  status: ('A' for Active; 'I' for Inactive)
ROOT
HETATM    1  N   UNL     1      63.230  11.312   6.454  1.00  0.00    -0.190 NA
HETATM    2  C   UNL     1      62.915  10.920   5.407  1.00  0.00     0.119 C 
HETATM    3  C   UNL     1      62.508  10.487   4.104  1.00  0.00     0.129 A 
HETATM    4  N   UNL     1      62.798   9.205   3.758  1.00  0.00    -0.355 N 
ATOM      5  HN  UNL     1      63.277   8.564   4.391  1.00  0.00     0.166 HD
HETATM    6  N   UNL     1      61.461  10.981   1.996  1.00  0.00    -0.371 N 
ATOM      7  HN  UNL     1      60.979  11.619   1.363  1.00  0.00     0.164 HD
HETATM    8  C   UNL     1      61.854  11.353   3.241  1.00  0.00     0.128 A 
HETATM    9  C   UNL     1      62.405   8.838   2.515  1.00  0.00     0.106 A 
HETATM   10  C   UNL     1      61.753   9.705   1.654  1.00  0.00     0.104 A 
ENDROOT
TORSDOF 0
ENDMDL
MODEL 2
REMARK VINA RESULT:      -3.6      6.531      7.783
REMARK  0 active torsions:
REMARK  status: ('A' for Active; 'I' for Inactive)
ROOT
HETATM    1  N   UNL     1      65.818   8.765   5.946  1.00  0.00    -0.190 NA
HETATM    2  C   UNL     1      66.182   7.885   6.611  1.00  0.00     0.119 C 
HETATM    3  C   UNL     1      66.589   6.768   7.411  1.00  0.00     0.129 A 
HETATM    4  N   UNL     1      67.711   6.922   8.162  1.00  0.00    -0.355 N 
ATOM      5  HN  UNL     1      68.247   7.790   8.173  1.00  0.00     0.166 HD
HETATM    6  N   UNL     1      66.224   4.506   8.139  1.00  0.00    -0.371 N 
ATOM      7  HN  UNL     1      65.689   3.638   8.132  1.00  0.00     0.164 HD
HETATM    8  C   UNL     1      65.863   5.587   7.402  1.00  0.00     0.128 A 
HETATM    9  C   UNL     1      68.068   5.841   8.895  1.00  0.00     0.106 A 
HETATM   10  C   UNL     1      67.343   4.660   8.884  1.00  0.00     0.104 A 
ENDROOT
TORSDOF 0
ENDMDL
MODEL 3
REMARK VINA RESULT:      -3.5      1.779      3.189
REMARK  0 active torsions:
REMARK  status: ('A' for Active; 'I' for Inactive)
ROOT
HETATM    1  N   UNL     1      61.854  11.931   2.484  1.00  0.00    -0.190 NA
HETATM    2  C   UNL     1      61.984  10.972   3.127  1.00  0.00     0.119 C 
HETATM    3  C   UNL     1      62.174   9.819   3.956  1.00  0.00     0.129 A 
HETATM    4  N   UNL     1      61.564   8.669   3.567  1.00  0.00    -0.355 N 
ATOM      5  HN  UNL     1      60.998   8.610   2.720  1.00  0.00     0.166 HD
HETATM    6  N   UNL     1      63.139   8.823   5.920  1.00  0.00    -0.371 N 
ATOM      7  HN  UNL     1      63.707   8.878   6.766  1.00  0.00     0.164 HD
HETATM    8  C   UNL     1      62.945   9.892   5.106  1.00  0.00     0.128 A 
HETATM    9  C   UNL     1      61.760   7.605   4.382  1.00  0.00     0.106 A 
HETATM   10  C   UNL     1      62.528   7.680   5.532  1.00  0.00     0.104 A 
ENDROOT
TORSDOF 0
ENDMDL
MODEL 4
REMARK VINA RESULT:      -3.3      2.053      2.816
REMARK  0 active torsions:
REMARK  status: ('A' for Active; 'I' for Inactive)
ROOT
HETATM    1  N   UNL     1      64.962   7.377   6.279  1.00  0.00    -0.190 NA
HETATM    2  C   UNL     1      64.314   8.150   5.702  1.00  0.00     0.119 C 
HETATM    3  C   UNL     1      63.510   9.066   4.950  1.00  0.00     0.129 A 
HETATM    4  N   UNL     1      63.220  10.259   5.533  1.00  0.00    -0.355 N 
ATOM      5  HN  UNL     1      63.558  10.509   6.462  1.00  0.00     0.166 HD
HETATM    6  N   UNL     1      62.279   9.572   2.947  1.00  0.00    -0.371 N 
ATOM      7  HN  UNL     1      61.942   9.326   2.017  1.00  0.00     0.164 HD
HETATM    8  C   UNL     1      63.050   8.733   3.685  1.00  0.00     0.128 A 
HETATM    9  C   UNL     1      62.450  11.092   4.795  1.00  0.00     0.106 A 
HETATM   10  C   UNL     1      61.989  10.757   3.532  1.00  0.00     0.104 A 
ENDROOT
TORSDOF 0
ENDMDL
MODEL 5
REMARK VINA RESULT:      -3.2      4.754      6.031
REMARK  0 active torsions:
REMARK  status: ('A' for Active; 'I' for Inactive)
ROOT
HETATM    1  N   UNL     1      63.703   8.997   4.408  1.00  0.00    -0.190 NA
HETATM    2  C   UNL     1      64.450   8.447   5.108  1.00  0.00     0.119 C 
HETATM    3  C   UNL     1      65.412   7.787   5.938  1.00  0.00     0.129 A 
HETATM    4  N   UNL     1      64.943   7.154   7.046  1.00  0.00    -0.355 N 
ATOM      5  HN  UNL     1      63.952   7.134   7.285  1.00  0.00     0.166 HD
HETATM    6  N   UNL     1      67.701   7.201   6.383  1.00  0.00    -0.371 N 
ATOM      7  HN  UNL     1      68.692   7.216   6.145  1.00  0.00     0.164 HD
HETATM    8  C   UNL     1      66.760   7.807   5.616  1.00  0.00     0.128 A 
HETATM    9  C   UNL     1      65.885   6.550   7.809  1.00  0.00     0.106 A 
HETATM   10  C   UNL     1      67.232   6.574   7.487  1.00  0.00     0.104 A 
ENDROOT
TORSDOF 0
ENDMDL
MODEL 6
REMARK VINA RESULT:      -3.2      2.829      3.937
REMARK  0 active torsions:
REMARK  status: ('A' for Active; 'I' for Inactive)
ROOT
HETATM    1  N   UNL     1      61.850  10.955   3.889  1.00  0.00    -0.190 NA
HETATM    2  C   UNL     1      62.378  10.059   4.409  1.00  0.00     0.119 C 
HETATM    3  C   UNL     1      63.076   8.985   5.049  1.00  0.00     0.129 A 
HETATM    4  N   UNL     1      62.340   7.904   5.421  1.00  0.00    -0.355 N 
ATOM      5  HN  UNL     1      61.336   7.843   5.253  1.00  0.00     0.166 HD
HETATM    6  N   UNL     1      65.133   8.067   5.888  1.00  0.00    -0.371 N 
ATOM      7  HN  UNL     1      66.138   8.124   6.055  1.00  0.00     0.164 HD
HETATM    8  C   UNL     1      64.441   9.061   5.277  1.00  0.00     0.128 A 
HETATM    9  C   UNL     1      63.034   6.914   6.032  1.00  0.00     0.106 A 
HETATM   10  C   UNL     1      64.398   6.993   6.261  1.00  0.00     0.104 A 
ENDROOT
TORSDOF 0
ENDMDL
MODEL 7
REMARK VINA RESULT:      -3.2      6.143      6.988
REMARK  0 active torsions:
REMARK  status: ('A' for Active; 'I' for Inactive)
ROOT
HETATM    1  N   UNL     1      67.239   4.073   8.907  1.00  0.00    -0.190 NA
HETATM    2  C   UNL     1      66.993   4.979   8.222  1.00  0.00     0.119 C 
HETATM    3  C   UNL     1      66.637   6.092   7.394  1.00  0.00     0.129 A 
HETATM    4  N   UNL     1      67.645   6.721   6.735  1.00  0.00    -0.355 N 
ATOM      5  HN  UNL     1      68.617   6.422   6.810  1.00  0.00     0.166 HD
HETATM    6  N   UNL     1      64.943   7.557   6.518  1.00  0.00    -0.371 N 
ATOM      7  HN  UNL     1      63.972   7.857   6.439  1.00  0.00     0.164 HD
HETATM    8  C   UNL     1      65.317   6.502   7.286  1.00  0.00     0.128 A 
HETATM    9  C   UNL     1      67.269   7.774   5.971  1.00  0.00     0.106 A 
HETATM   10  C   UNL     1      65.950   8.184   5.866  1.00  0.00     0.104 A 
ENDROOT
TORSDOF 0
ENDMDL
MODEL 8
REMARK VINA RESULT:      -3.1      5.683      6.515
REMARK  0 active torsions:
REMARK  status: ('A' for Active; 'I' for Inactive)
ROOT
HETATM    1  N   UNL     1      66.699   6.568   9.621  1.00  0.00    -0.190 NA
HETATM    2  C   UNL     1      66.706   6.773   8.477  1.00  0.00     0.119 C 
HETATM    3  C   UNL     1      66.756   6.989   7.062  1.00  0.00     0.129 A 
HETATM    4  N   UNL     1      65.826   7.825   6.530  1.00  0.00    -0.355 N 
ATOM      5  HN  UNL     1      65.122   8.292   7.101  1.00  0.00     0.166 HD
HETATM    6  N   UNL     1      67.786   6.533   4.938  1.00  0.00    -0.371 N 
ATOM      7  HN  UNL     1      68.491   6.069   4.364  1.00  0.00     0.164 HD
HETATM    8  C   UNL     1      67.714   6.359   6.282  1.00  0.00     0.128 A 
HETATM    9  C   UNL     1      65.901   7.995   5.189  1.00  0.00     0.106 A 
HETATM   10  C   UNL     1      66.857   7.363   4.410  1.00  0.00     0.104 A 
ENDROOT
TORSDOF 0
ENDMDL
MODEL 9
REMARK VINA RESULT:      -3.1      1.662      3.807
REMARK  0 active torsions:
REMARK  status: ('A' for Active; 'I' for Inactive)
ROOT
HETATM    1  N   UNL     1      61.342   7.104   2.100  1.00  0.00    -0.190 NA
HETATM    2  C   UNL     1      61.645   7.985   2.795  1.00  0.00     0.119 C 
HETATM    3  C   UNL     1      62.047   9.035   3.682  1.00  0.00     0.129 A 
HETATM    4  N   UNL     1      61.662  10.298   3.362  1.00  0.00    -0.355 N 
ATOM      5  HN  UNL     1      61.105  10.505   2.533  1.00  0.00     0.166 HD
HETATM    6  N   UNL     1      63.208   9.728   5.670  1.00  0.00    -0.371 N 
ATOM      7  HN  UNL     1      63.763   9.524   6.501  1.00  0.00     0.164 HD
HETATM    8  C   UNL     1      62.802   8.758   4.812  1.00  0.00     0.128 A 
HETATM    9  C   UNL     1      62.071  11.263   4.220  1.00  0.00     0.106 A 
HETATM   10  C   UNL     1      62.826  10.985   5.347  1.00  0.00     0.104 A 
ENDROOT
TORSDOF 0
ENDMDL
