MODEL 1
REMARK VINA RESULT:      -5.3      0.000      0.000
REMARK  3 active torsions:
REMARK  status: ('A' for Active; 'I' for Inactive)
REMARK    1  A    between atoms: C_1  and  C_2 
REMARK    2  A    between atoms: C_1  and  O_3 
REMARK    3  A    between atoms: O_3  and  C_5 
ROOT
HETATM    1  C   UNL     1      63.070   8.700   5.061  1.00  0.00     0.070 A 
HETATM    2  C   UNL     1      62.169  10.605   3.218  1.00  0.00     0.034 A 
HETATM    3 CL   UNL     1      61.653  11.774   2.069  1.00  0.00    -0.084 Cl
HETATM    4  C   UNL     1      62.732   8.321   3.761  1.00  0.00     0.038 A 
HETATM    5  C   UNL     1      62.909  10.035   5.443  1.00  0.00     0.038 A 
HETATM    6  C   UNL     1      62.294   9.272   2.838  1.00  0.00     0.026 A 
HETATM    7  C   UNL     1      62.466  10.990   4.523  1.00  0.00     0.026 A 
ENDROOT
BRANCH   1   8
HETATM    8  O   UNL     1      63.542   7.869   6.038  1.00  0.00    -0.330 OA
BRANCH   8   9
HETATM    9  C   UNL     1      64.829   7.252   5.886  1.00  0.00     0.148 C 
HETATM   10  C   UNL     1      65.114   6.545   7.225  1.00  0.00     0.058 C 
HETATM   11  C   UNL     1      64.745   6.154   4.812  1.00  0.00     0.058 C 
BRANCH   9  12
HETATM   12  C   UNL     1      66.024   8.198   5.634  1.00  0.00     0.209 C 
HETATM   13  O   UNL     1      66.736   8.227   4.642  1.00  0.00    -0.646 OA
HETATM   14  O   UNL     1      66.222   9.091   6.631  1.00  0.00    -0.646 OA
ENDBRANCH   9  12
ENDBRANCH   8   9
ENDBRANCH   1   8
TORSDOF 3
ENDMDL
MODEL 2
REMARK VINA RESULT:      -5.0      0.966      1.729
REMARK  3 active torsions:
REMARK  status: ('A' for Active; 'I' for Inactive)
REMARK    1  A    between atoms: C_1  and  C_2 
REMARK    2  A    between atoms: C_1  and  O_3 
REMARK    3  A    between atoms: O_3  and  C_5 
ROOT
HETATM    1  C   UNL     1      62.747   8.527   4.558  1.00  0.00     0.070 A 
HETATM    2  C   UNL     1      62.043  10.712   2.956  1.00  0.00     0.034 A 
HETATM    3 CL   UNL     1      61.573  12.055   1.991  1.00  0.00    -0.084 Cl
HETATM    4  C   UNL     1      62.765   9.820   5.080  1.00  0.00     0.038 A 
HETATM    5  C   UNL     1      62.416   8.342   3.212  1.00  0.00     0.038 A 
HETATM    6  C   UNL     1      62.403  10.910   4.285  1.00  0.00     0.026 A 
HETATM    7  C   UNL     1      62.057   9.431   2.411  1.00  0.00     0.026 A 
ENDROOT
BRANCH   1   8
HETATM    8  O   UNL     1      63.046   7.384   5.245  1.00  0.00    -0.330 OA
BRANCH   8   9
HETATM    9  C   UNL     1      64.408   6.939   5.326  1.00  0.00     0.148 C 
HETATM   10  C   UNL     1      64.341   5.470   5.785  1.00  0.00     0.058 C 
HETATM   11  C   UNL     1      65.029   6.938   3.919  1.00  0.00     0.058 C 
BRANCH   9  12
HETATM   12  C   UNL     1      65.314   7.668   6.344  1.00  0.00     0.209 C 
HETATM   13  O   UNL     1      65.894   8.729   6.175  1.00  0.00    -0.646 OA
HETATM   14  O   UNL     1      65.394   7.039   7.539  1.00  0.00    -0.646 OA
ENDBRANCH   9  12
ENDBRANCH   8   9
ENDBRANCH   1   8
TORSDOF 3
ENDMDL
MODEL 3
REMARK VINA RESULT:      -4.8      1.195      1.877
REMARK  3 active torsions:
REMARK  status: ('A' for Active; 'I' for Inactive)
REMARK    1  A    between atoms: C_1  and  C_2 
REMARK    2  A    between atoms: C_1  and  O_3 
REMARK    3  A    between atoms: O_3  and  C_5 
ROOT
HETATM    1  C   UNL     1      63.700   7.615   5.091  1.00  0.00     0.070 A 
HETATM    2  C   UNL     1      62.638   8.854   2.817  1.00  0.00     0.034 A 
HETATM    3 CL   UNL     1      61.947   9.607   1.435  1.00  0.00    -0.084 Cl
HETATM    4  C   UNL     1      63.205   8.917   5.162  1.00  0.00     0.038 A 
HETATM    5  C   UNL     1      63.700   6.954   3.859  1.00  0.00     0.038 A 
HETATM    6  C   UNL     1      62.664   9.532   4.031  1.00  0.00     0.026 A 
HETATM    7  C   UNL     1      63.164   7.568   2.722  1.00  0.00     0.026 A 
ENDROOT
BRANCH   1   8
HETATM    8  O   UNL     1      64.219   6.899   6.134  1.00  0.00    -0.330 OA
BRANCH   8   9
HETATM    9  C   UNL     1      65.643   6.809   6.295  1.00  0.00     0.148 C 
HETATM   10  C   UNL     1      65.880   6.610   7.804  1.00  0.00     0.058 C 
HETATM   11  C   UNL     1      66.155   5.541   5.592  1.00  0.00     0.058 C 
BRANCH   9  12
HETATM   12  C   UNL     1      66.465   8.053   5.889  1.00  0.00     0.209 C 
HETATM   13  O   UNL     1      67.062   8.221   4.837  1.00  0.00    -0.646 OA
HETATM   14  O   UNL     1      66.444   9.037   6.816  1.00  0.00    -0.646 OA
ENDBRANCH   9  12
ENDBRANCH   8   9
ENDBRANCH   1   8
TORSDOF 3
ENDMDL
MODEL 4
REMARK VINA RESULT:      -4.3      2.274      3.377
REMARK  3 active torsions:
REMARK  status: ('A' for Active; 'I' for Inactive)
REMARK    1  A    between atoms: C_1  and  C_2 
REMARK    2  A    between atoms: C_1  and  O_3 
REMARK    3  A    between atoms: O_3  and  C_5 
ROOT
HETATM    1  C   UNL     1      62.804   7.788   2.920  1.00  0.00     0.070 A 
HETATM    2  C   UNL     1      60.335   7.848   1.602  1.00  0.00     0.034 A 
HETATM    3 CL   UNL     1      58.807   7.916   0.819  1.00  0.00    -0.084 Cl
HETATM    4  C   UNL     1      62.527   8.785   1.984  1.00  0.00     0.038 A 
HETATM    5  C   UNL     1      61.850   6.793   3.157  1.00  0.00     0.038 A 
HETATM    6  C   UNL     1      61.292   8.823   1.335  1.00  0.00     0.026 A 
HETATM    7  C   UNL     1      60.613   6.825   2.505  1.00  0.00     0.026 A 
ENDROOT
BRANCH   1   8
HETATM    8  O   UNL     1      63.959   7.668   3.641  1.00  0.00    -0.330 OA
BRANCH   8   9
HETATM    9  C   UNL     1      64.004   8.144   4.995  1.00  0.00     0.148 C 
HETATM   10  C   UNL     1      65.497   8.357   5.312  1.00  0.00     0.058 C 
HETATM   11  C   UNL     1      63.332   9.525   5.072  1.00  0.00     0.058 C 
BRANCH   9  12
HETATM   12  C   UNL     1      63.464   7.189   6.082  1.00  0.00     0.209 C 
HETATM   13  O   UNL     1      63.732   6.005   6.212  1.00  0.00    -0.646 OA
HETATM   14  O   UNL     1      62.653   7.798   6.977  1.00  0.00    -0.646 OA
ENDBRANCH   9  12
ENDBRANCH   8   9
ENDBRANCH   1   8
TORSDOF 3
ENDMDL
MODEL 5
REMARK VINA RESULT:      -4.3      3.429      5.165
REMARK  3 active torsions:
REMARK  status: ('A' for Active; 'I' for Inactive)
REMARK    1  A    between atoms: C_1  and  C_2 
REMARK    2  A    between atoms: C_1  and  O_3 
REMARK    3  A    between atoms: O_3  and  C_5 
ROOT
HETATM    1  C   UNL     1      64.036   7.957   4.598  1.00  0.00     0.070 A 
HETATM    2  C   UNL     1      65.310   6.980   6.891  1.00  0.00     0.034 A 
HETATM    3 CL   UNL     1      66.067   6.404   8.322  1.00  0.00    -0.084 Cl
HETATM    4  C   UNL     1      63.416   6.993   5.393  1.00  0.00     0.038 A 
HETATM    5  C   UNL     1      65.321   8.395   4.936  1.00  0.00     0.038 A 
HETATM    6  C   UNL     1      64.046   6.514   6.544  1.00  0.00     0.026 A 
HETATM    7  C   UNL     1      65.957   7.913   6.085  1.00  0.00     0.026 A 
ENDROOT
BRANCH   1   8
HETATM    8  O   UNL     1      63.507   8.525   3.473  1.00  0.00    -0.330 OA
BRANCH   8   9
HETATM    9  C   UNL     1      62.400   9.432   3.589  1.00  0.00     0.148 C 
HETATM   10  C   UNL     1      61.164   8.551   3.855  1.00  0.00     0.058 C 
HETATM   11  C   UNL     1      62.592  10.316   4.832  1.00  0.00     0.058 C 
BRANCH   9  12
HETATM   12  C   UNL     1      62.066  10.278   2.340  1.00  0.00     0.209 C 
HETATM   13  O   UNL     1      61.834   9.860   1.216  1.00  0.00    -0.646 OA
HETATM   14  O   UNL     1      61.992  11.605   2.593  1.00  0.00    -0.646 OA
ENDBRANCH   9  12
ENDBRANCH   8   9
ENDBRANCH   1   8
TORSDOF 3
ENDMDL
MODEL 6
REMARK VINA RESULT:      -4.3      2.518      3.097
REMARK  3 active torsions:
REMARK  status: ('A' for Active; 'I' for Inactive)
REMARK    1  A    between atoms: C_1  and  C_2 
REMARK    2  A    between atoms: C_1  and  O_3 
REMARK    3  A    between atoms: O_3  and  C_5 
ROOT
HETATM    1  C   UNL     1      62.505   7.111   6.014  1.00  0.00     0.070 A 
HETATM    2  C   UNL     1      60.191   6.614   4.519  1.00  0.00     0.034 A 
HETATM    3 CL   UNL     1      58.753   6.344   3.617  1.00  0.00    -0.084 Cl
HETATM    4  C   UNL     1      62.266   7.808   4.829  1.00  0.00     0.038 A 
HETATM    5  C   UNL     1      61.596   6.129   6.420  1.00  0.00     0.038 A 
HETATM    6  C   UNL     1      61.106   7.569   4.089  1.00  0.00     0.026 A 
HETATM    7  C   UNL     1      60.436   5.884   5.680  1.00  0.00     0.026 A 
ENDROOT
BRANCH   1   8
HETATM    8  O   UNL     1      63.582   7.282   6.838  1.00  0.00    -0.330 OA
BRANCH   8   9
HETATM    9  C   UNL     1      64.910   7.136   6.312  1.00  0.00     0.148 C 
HETATM   10  C   UNL     1      65.790   6.726   7.509  1.00  0.00     0.058 C 
HETATM   11  C   UNL     1      64.937   5.964   5.317  1.00  0.00     0.058 C 
BRANCH   9  12
HETATM   12  C   UNL     1      65.560   8.403   5.712  1.00  0.00     0.209 C 
HETATM   13  O   UNL     1      65.177   9.555   5.852  1.00  0.00    -0.646 OA
HETATM   14  O   UNL     1      66.688   8.148   5.011  1.00  0.00    -0.646 OA
ENDBRANCH   9  12
ENDBRANCH   8   9
ENDBRANCH   1   8
TORSDOF 3
ENDMDL
MODEL 7
REMARK VINA RESULT:      -4.1      2.758      4.207
REMARK  3 active torsions:
REMARK  status: ('A' for Active; 'I' for Inactive)
REMARK    1  A    between atoms: C_1  and  C_2 
REMARK    2  A    between atoms: C_1  and  O_3 
REMARK    3  A    between atoms: O_3  and  C_5 
ROOT
HETATM    1  C   UNL     1      62.497   7.974   3.505  1.00  0.00     0.070 A 
HETATM    2  C   UNL     1      61.976  10.528   2.486  1.00  0.00     0.034 A 
HETATM    3 CL   UNL     1      61.616  12.093   1.871  1.00  0.00    -0.084 Cl
HETATM    4  C   UNL     1      62.373   9.066   4.365  1.00  0.00     0.038 A 
HETATM    5  C   UNL     1      62.404   8.181   2.126  1.00  0.00     0.038 A 
HETATM    6  C   UNL     1      62.101  10.338   3.858  1.00  0.00     0.026 A 
HETATM    7  C   UNL     1      62.136   9.455   1.613  1.00  0.00     0.026 A 
ENDROOT
BRANCH   1   8
HETATM    8  O   UNL     1      62.727   6.681   3.885  1.00  0.00    -0.330 OA
BRANCH   8   9
HETATM    9  C   UNL     1      61.685   5.934   4.529  1.00  0.00     0.148 C 
HETATM   10  C   UNL     1      61.990   4.453   4.234  1.00  0.00     0.058 C 
HETATM   11  C   UNL     1      61.794   6.116   6.052  1.00  0.00     0.058 C 
BRANCH   9  12
HETATM   12  C   UNL     1      60.244   6.186   4.031  1.00  0.00     0.209 C 
HETATM   13  O   UNL     1      59.387   6.856   4.586  1.00  0.00    -0.646 OA
HETATM   14  O   UNL     1      59.983   5.616   2.832  1.00  0.00    -0.646 OA
ENDBRANCH   9  12
ENDBRANCH   8   9
ENDBRANCH   1   8
TORSDOF 3
ENDMDL
MODEL 8
REMARK VINA RESULT:      -4.0      2.295      3.236
REMARK  3 active torsions:
REMARK  status: ('A' for Active; 'I' for Inactive)
REMARK    1  A    between atoms: C_1  and  C_2 
REMARK    2  A    between atoms: C_1  and  O_3 
REMARK    3  A    between atoms: O_3  and  C_5 
ROOT
HETATM    1  C   UNL     1      64.483   6.502   5.227  1.00  0.00     0.070 A 
HETATM    2  C   UNL     1      62.811   8.576   4.369  1.00  0.00     0.034 A 
HETATM    3 CL   UNL     1      61.751   9.823   3.844  1.00  0.00    -0.084 Cl
HETATM    4  C   UNL     1      63.667   7.173   6.138  1.00  0.00     0.038 A 
HETATM    5  C   UNL     1      64.489   6.909   3.889  1.00  0.00     0.038 A 
HETATM    6  C   UNL     1      62.823   8.200   5.708  1.00  0.00     0.026 A 
HETATM    7  C   UNL     1      63.649   7.940   3.456  1.00  0.00     0.026 A 
ENDROOT
BRANCH   1   8
HETATM    8  O   UNL     1      65.321   5.463   5.521  1.00  0.00    -0.330 OA
BRANCH   8   9
HETATM    9  C   UNL     1      66.475   5.691   6.343  1.00  0.00     0.148 C 
HETATM   10  C   UNL     1      67.479   4.583   5.970  1.00  0.00     0.058 C 
HETATM   11  C   UNL     1      67.124   7.030   5.951  1.00  0.00     0.058 C 
BRANCH   9  12
HETATM   12  C   UNL     1      66.268   5.589   7.871  1.00  0.00     0.209 C 
HETATM   13  O   UNL     1      66.069   4.569   8.513  1.00  0.00    -0.646 OA
HETATM   14  O   UNL     1      66.374   6.777   8.509  1.00  0.00    -0.646 OA
ENDBRANCH   9  12
ENDBRANCH   8   9
ENDBRANCH   1   8
TORSDOF 3
ENDMDL
MODEL 9
REMARK VINA RESULT:      -4.0      3.370      5.280
REMARK  3 active torsions:
REMARK  status: ('A' for Active; 'I' for Inactive)
REMARK    1  A    between atoms: C_1  and  C_2 
REMARK    2  A    between atoms: C_1  and  O_3 
REMARK    3  A    between atoms: O_3  and  C_5 
ROOT
HETATM    1  C   UNL     1      64.710   6.270   4.310  1.00  0.00     0.070 A 
HETATM    2  C   UNL     1      66.802   5.090   5.746  1.00  0.00     0.034 A 
HETATM    3 CL   UNL     1      68.074   4.384   6.663  1.00  0.00    -0.084 Cl
HETATM    4  C   UNL     1      64.468   5.173   5.137  1.00  0.00     0.038 A 
HETATM    5  C   UNL     1      66.019   6.742   4.172  1.00  0.00     0.038 A 
HETATM    6  C   UNL     1      65.509   4.592   5.864  1.00  0.00     0.026 A 
HETATM    7  C   UNL     1      67.065   6.159   4.894  1.00  0.00     0.026 A 
ENDROOT
BRANCH   1   8
HETATM    8  O   UNL     1      63.770   6.943   3.580  1.00  0.00    -0.330 OA
BRANCH   8   9
HETATM    9  C   UNL     1      62.851   7.823   4.244  1.00  0.00     0.148 C 
HETATM   10  C   UNL     1      62.577   8.967   3.249  1.00  0.00     0.058 C 
HETATM   11  C   UNL     1      61.515   7.093   4.462  1.00  0.00     0.058 C 
BRANCH   9  12
HETATM   12  C   UNL     1      63.350   8.491   5.544  1.00  0.00     0.209 C 
HETATM   13  O   UNL     1      64.108   9.445   5.630  1.00  0.00    -0.646 OA
HETATM   14  O   UNL     1      62.822   7.948   6.665  1.00  0.00    -0.646 OA
ENDBRANCH   9  12
ENDBRANCH   8   9
ENDBRANCH   1   8
TORSDOF 3
ENDMDL
