MODEL 1
REMARK VINA RESULT:      -4.2      0.000      0.000
REMARK  3 active torsions:
REMARK  status: ('A' for Active; 'I' for Inactive)
REMARK    1  A    between atoms: C_1  and  C_4 
REMARK    2  A    between atoms: C_1  and  O_5 
REMARK    3  A    between atoms: O_5  and  C_10 
ROOT
HETATM    1  N   UNL     1      64.019   6.845   6.250  1.00  0.00    -0.075 N 
HETATM    2  C   UNL     1      62.957   8.734   4.279  1.00  0.00     0.088 C 
HETATM    3  C   UNL     1      62.603   7.208   6.274  1.00  0.00     0.233 C 
HETATM    4  C   UNL     1      64.854   7.935   5.749  1.00  0.00     0.233 C 
HETATM    5  C   UNL     1      62.107   7.610   4.885  1.00  0.00     0.042 C 
HETATM    6  C   UNL     1      64.438   8.335   4.334  1.00  0.00     0.042 C 
HETATM    7  H   UNL     1      64.315   6.613   7.199  1.00  0.00     0.277 HD
HETATM    8  H   UNL     1      64.129   6.050   5.622  1.00  0.00     0.277 HD
ENDROOT
BRANCH   2   9
HETATM    9  C   UNL     1      62.766  10.084   4.955  1.00  0.00     0.263 C 
HETATM   10  O   UNL     1      63.331  10.410   5.994  1.00  0.00    -0.265 OA
BRANCH   9  11
HETATM   11  O   UNL     1      61.945  10.902   4.244  1.00  0.00    -0.322 OA
BRANCH  11  12
HETATM   12  C   UNL     1      61.835  10.587   2.848  1.00  0.00     0.174 C 
HETATM   13  C   UNL     1      61.793  11.858   2.018  1.00  0.00     0.034 C 
ENDBRANCH  11  12
ENDBRANCH   9  11
ENDBRANCH   2   9
TORSDOF 3
ENDMDL
MODEL 2
REMARK VINA RESULT:      -4.2      2.124      3.022
REMARK  3 active torsions:
REMARK  status: ('A' for Active; 'I' for Inactive)
REMARK    1  A    between atoms: C_1  and  C_4 
REMARK    2  A    between atoms: C_1  and  O_5 
REMARK    3  A    between atoms: O_5  and  C_10 
ROOT
HETATM    1  N   UNL     1      67.074   7.241   7.545  1.00  0.00    -0.075 N 
HETATM    2  C   UNL     1      64.849   6.900   5.670  1.00  0.00     0.088 C 
HETATM    3  C   UNL     1      65.883   6.497   7.951  1.00  0.00     0.233 C 
HETATM    4  C   UNL     1      66.760   8.289   6.575  1.00  0.00     0.233 C 
HETATM    5  C   UNL     1      65.185   5.862   6.748  1.00  0.00     0.042 C 
HETATM    6  C   UNL     1      66.114   7.696   5.323  1.00  0.00     0.042 C 
HETATM    7  H   UNL     1      67.491   7.671   8.371  1.00  0.00     0.277 HD
HETATM    8  H   UNL     1      67.719   6.586   7.103  1.00  0.00     0.277 HD
ENDROOT
BRANCH   2   9
HETATM    9  C   UNL     1      63.733   7.857   6.062  1.00  0.00     0.263 C 
HETATM   10  O   UNL     1      62.861   7.585   6.881  1.00  0.00    -0.265 OA
BRANCH   9  11
HETATM   11  O   UNL     1      63.852   9.063   5.445  1.00  0.00    -0.322 OA
BRANCH  11  12
HETATM   12  C   UNL     1      62.719   9.456   4.658  1.00  0.00     0.174 C 
HETATM   13  C   UNL     1      62.779   8.816   3.282  1.00  0.00     0.034 C 
ENDBRANCH  11  12
ENDBRANCH   9  11
ENDBRANCH   2   9
TORSDOF 3
ENDMDL
MODEL 3
REMARK VINA RESULT:      -4.2      2.840      4.308
REMARK  3 active torsions:
REMARK  status: ('A' for Active; 'I' for Inactive)
REMARK    1  A    between atoms: C_1  and  C_4 
REMARK    2  A    between atoms: C_1  and  O_5 
REMARK    3  A    between atoms: O_5  and  C_10 
ROOT
HETATM    1  N   UNL     1      67.466   5.326   4.365  1.00  0.00    -0.075 N 
HETATM    2  C   UNL     1      67.238   7.689   6.081  1.00  0.00     0.088 C 
HETATM    3  C   UNL     1      67.031   6.601   3.798  1.00  0.00     0.233 C 
HETATM    4  C   UNL     1      67.069   5.185   5.765  1.00  0.00     0.233 C 
HETATM    5  C   UNL     1      67.590   7.782   4.591  1.00  0.00     0.042 C 
HETATM    6  C   UNL     1      67.657   6.312   6.614  1.00  0.00     0.042 C 
HETATM    7  H   UNL     1      67.048   4.567   3.827  1.00  0.00     0.277 HD
HETATM    8  H   UNL     1      68.484   5.293   4.322  1.00  0.00     0.277 HD
ENDROOT
BRANCH   2   9
HETATM    9  C   UNL     1      65.766   7.929   6.382  1.00  0.00     0.263 C 
HETATM   10  O   UNL     1      65.109   7.238   7.154  1.00  0.00    -0.265 OA
BRANCH   9  11
HETATM   11  O   UNL     1      65.285   9.028   5.743  1.00  0.00    -0.322 OA
BRANCH  11  12
HETATM   12  C   UNL     1      64.089   8.812   4.979  1.00  0.00     0.174 C 
HETATM   13  C   UNL     1      63.108   9.950   5.193  1.00  0.00     0.034 C 
ENDBRANCH  11  12
ENDBRANCH   9  11
ENDBRANCH   2   9
TORSDOF 3
ENDMDL
MODEL 4
REMARK VINA RESULT:      -4.0      2.936      4.223
REMARK  3 active torsions:
REMARK  status: ('A' for Active; 'I' for Inactive)
REMARK    1  A    between atoms: C_1  and  C_4 
REMARK    2  A    between atoms: C_1  and  O_5 
REMARK    3  A    between atoms: O_5  and  C_10 
ROOT
HETATM    1  N   UNL     1      66.182   4.681   8.296  1.00  0.00    -0.075 N 
HETATM    2  C   UNL     1      66.749   6.517   6.085  1.00  0.00     0.088 C 
HETATM    3  C   UNL     1      65.150   4.967   7.301  1.00  0.00     0.233 C 
HETATM    4  C   UNL     1      67.082   5.816   8.492  1.00  0.00     0.233 C 
HETATM    5  C   UNL     1      65.765   5.347   5.954  1.00  0.00     0.042 C 
HETATM    6  C   UNL     1      67.772   6.197   7.183  1.00  0.00     0.042 C 
HETATM    7  H   UNL     1      65.730   4.461   9.184  1.00  0.00     0.277 HD
HETATM    8  H   UNL     1      66.736   3.895   7.957  1.00  0.00     0.277 HD
ENDROOT
BRANCH   2   9
HETATM    9  C   UNL     1      66.081   7.852   6.381  1.00  0.00     0.263 C 
HETATM   10  O   UNL     1      66.672   8.817   6.855  1.00  0.00    -0.265 OA
BRANCH   9  11
HETATM   11  O   UNL     1      64.774   7.866   6.006  1.00  0.00    -0.322 OA
BRANCH  11  12
HETATM   12  C   UNL     1      64.445   8.823   4.988  1.00  0.00     0.174 C 
HETATM   13  C   UNL     1      63.445   8.234   4.009  1.00  0.00     0.034 C 
ENDBRANCH  11  12
ENDBRANCH   9  11
ENDBRANCH   2   9
TORSDOF 3
ENDMDL
MODEL 5
REMARK VINA RESULT:      -3.9      2.465      3.481
REMARK  3 active torsions:
REMARK  status: ('A' for Active; 'I' for Inactive)
REMARK    1  A    between atoms: C_1  and  C_4 
REMARK    2  A    between atoms: C_1  and  O_5 
REMARK    3  A    between atoms: O_5  and  C_10 
ROOT
HETATM    1  N   UNL     1      67.360   5.180   6.031  1.00  0.00    -0.075 N 
HETATM    2  C   UNL     1      66.079   7.419   4.643  1.00  0.00     0.088 C 
HETATM    3  C   UNL     1      65.910   5.189   5.842  1.00  0.00     0.233 C 
HETATM    4  C   UNL     1      67.904   6.531   6.152  1.00  0.00     0.233 C 
HETATM    5  C   UNL     1      65.516   5.993   4.602  1.00  0.00     0.042 C 
HETATM    6  C   UNL     1      67.590   7.359   4.907  1.00  0.00     0.042 C 
HETATM    7  H   UNL     1      67.576   4.660   6.882  1.00  0.00     0.277 HD
HETATM    8  H   UNL     1      67.781   4.743   5.213  1.00  0.00     0.277 HD
ENDROOT
BRANCH   2   9
HETATM    9  C   UNL     1      65.414   8.314   5.678  1.00  0.00     0.263 C 
HETATM   10  O   UNL     1      66.031   9.073   6.418  1.00  0.00    -0.265 OA
BRANCH   9  11
HETATM   11  O   UNL     1      64.058   8.216   5.645  1.00  0.00    -0.322 OA
BRANCH  11  12
HETATM   12  C   UNL     1      63.417   9.004   4.630  1.00  0.00     0.174 C 
HETATM   13  C   UNL     1      62.938  10.325   5.206  1.00  0.00     0.034 C 
ENDBRANCH  11  12
ENDBRANCH   9  11
ENDBRANCH   2   9
TORSDOF 3
ENDMDL
MODEL 6
REMARK VINA RESULT:      -3.9      3.957      5.744
REMARK  3 active torsions:
REMARK  status: ('A' for Active; 'I' for Inactive)
REMARK    1  A    between atoms: C_1  and  C_4 
REMARK    2  A    between atoms: C_1  and  O_5 
REMARK    3  A    between atoms: O_5  and  C_10 
ROOT
HETATM    1  N   UNL     1      66.632   5.170   4.084  1.00  0.00    -0.075 N 
HETATM    2  C   UNL     1      66.217   7.693   5.514  1.00  0.00     0.088 C 
HETATM    3  C   UNL     1      65.276   5.662   4.318  1.00  0.00     0.233 C 
HETATM    4  C   UNL     1      67.553   5.577   5.144  1.00  0.00     0.233 C 
HETATM    5  C   UNL     1      65.250   7.186   4.436  1.00  0.00     0.042 C 
HETATM    6  C   UNL     1      67.610   7.100   5.262  1.00  0.00     0.042 C 
HETATM    7  H   UNL     1      66.609   4.151   4.041  1.00  0.00     0.277 HD
HETATM    8  H   UNL     1      66.966   5.570   3.207  1.00  0.00     0.277 HD
ENDROOT
BRANCH   2   9
HETATM    9  C   UNL     1      65.775   7.377   6.935  1.00  0.00     0.263 C 
HETATM   10  O   UNL     1      64.630   7.057   7.236  1.00  0.00    -0.265 OA
BRANCH   9  11
HETATM   11  O   UNL     1      66.809   7.434   7.818  1.00  0.00    -0.322 OA
BRANCH  11  12
HETATM   12  C   UNL     1      66.750   6.476   8.885  1.00  0.00     0.174 C 
HETATM   13  C   UNL     1      68.038   5.675   8.951  1.00  0.00     0.034 C 
ENDBRANCH  11  12
ENDBRANCH   9  11
ENDBRANCH   2   9
TORSDOF 3
ENDMDL
MODEL 7
REMARK VINA RESULT:      -3.7      2.562      4.266
REMARK  3 active torsions:
REMARK  status: ('A' for Active; 'I' for Inactive)
REMARK    1  A    between atoms: C_1  and  C_4 
REMARK    2  A    between atoms: C_1  and  O_5 
REMARK    3  A    between atoms: O_5  and  C_10 
ROOT
HETATM    1  N   UNL     1      62.562   6.185   5.601  1.00  0.00    -0.075 N 
HETATM    2  C   UNL     1      64.202   8.310   4.426  1.00  0.00     0.088 C 
HETATM    3  C   UNL     1      62.693   7.470   6.285  1.00  0.00     0.233 C 
HETATM    4  C   UNL     1      63.758   5.852   4.828  1.00  0.00     0.233 C 
HETATM    5  C   UNL     1      62.973   8.602   5.297  1.00  0.00     0.042 C 
HETATM    6  C   UNL     1      64.046   6.926   3.780  1.00  0.00     0.042 C 
HETATM    7  H   UNL     1      62.407   5.456   6.297  1.00  0.00     0.277 HD
HETATM    8  H   UNL     1      61.778   6.252   4.953  1.00  0.00     0.277 HD
ENDROOT
BRANCH   2   9
HETATM    9  C   UNL     1      65.521   8.377   5.180  1.00  0.00     0.263 C 
HETATM   10  O   UNL     1      65.684   9.027   6.208  1.00  0.00    -0.265 OA
BRANCH   9  11
HETATM   11  O   UNL     1      66.475   7.589   4.616  1.00  0.00    -0.322 OA
BRANCH  11  12
HETATM   12  C   UNL     1      67.624   7.342   5.439  1.00  0.00     0.174 C 
HETATM   13  C   UNL     1      67.539   5.964   6.071  1.00  0.00     0.034 C 
ENDBRANCH  11  12
ENDBRANCH   9  11
ENDBRANCH   2   9
TORSDOF 3
ENDMDL
MODEL 8
REMARK VINA RESULT:      -3.7      2.468      4.421
REMARK  3 active torsions:
REMARK  status: ('A' for Active; 'I' for Inactive)
REMARK    1  A    between atoms: C_1  and  C_4 
REMARK    2  A    between atoms: C_1  and  O_5 
REMARK    3  A    between atoms: O_5  and  C_10 
ROOT
HETATM    1  N   UNL     1      62.005   7.200   2.767  1.00  0.00    -0.075 N 
HETATM    2  C   UNL     1      64.005   8.105   4.706  1.00  0.00     0.088 C 
HETATM    3  C   UNL     1      61.655   8.217   3.757  1.00  0.00     0.233 C 
HETATM    4  C   UNL     1      63.017   6.273   3.269  1.00  0.00     0.233 C 
HETATM    5  C   UNL     1      62.883   9.016   4.192  1.00  0.00     0.042 C 
HETATM    6  C   UNL     1      64.292   7.018   3.661  1.00  0.00     0.042 C 
HETATM    7  H   UNL     1      61.165   6.673   2.527  1.00  0.00     0.277 HD
HETATM    8  H   UNL     1      62.389   7.675   1.951  1.00  0.00     0.277 HD
ENDROOT
BRANCH   2   9
HETATM    9  C   UNL     1      63.706   7.457   6.049  1.00  0.00     0.263 C 
HETATM   10  O   UNL     1      62.810   7.831   6.799  1.00  0.00    -0.265 OA
BRANCH   9  11
HETATM   11  O   UNL     1      64.506   6.385   6.291  1.00  0.00    -0.322 OA
BRANCH  11  12
HETATM   12  C   UNL     1      65.474   6.572   7.334  1.00  0.00     0.174 C 
HETATM   13  C   UNL     1      66.861   6.758   6.746  1.00  0.00     0.034 C 
ENDBRANCH  11  12
ENDBRANCH   9  11
ENDBRANCH   2   9
TORSDOF 3
ENDMDL
MODEL 9
REMARK VINA RESULT:      -3.5      3.730      4.444
REMARK  3 active torsions:
REMARK  status: ('A' for Active; 'I' for Inactive)
REMARK    1  A    between atoms: C_1  and  C_4 
REMARK    2  A    between atoms: C_1  and  O_5 
REMARK    3  A    between atoms: O_5  and  C_10 
ROOT
HETATM    1  N   UNL     1      67.687   6.573   4.561  1.00  0.00    -0.075 N 
HETATM    2  C   UNL     1      65.154   7.736   5.462  1.00  0.00     0.088 C 
HETATM    3  C   UNL     1      66.419   5.985   4.131  1.00  0.00     0.233 C 
HETATM    4  C   UNL     1      67.586   7.184   5.885  1.00  0.00     0.233 C 
HETATM    5  C   UNL     1      65.301   7.027   4.109  1.00  0.00     0.042 C 
HETATM    6  C   UNL     1      66.520   8.280   5.900  1.00  0.00     0.042 C 
HETATM    7  H   UNL     1      68.396   5.840   4.590  1.00  0.00     0.277 HD
HETATM    8  H   UNL     1      67.937   7.303   3.895  1.00  0.00     0.277 HD
ENDROOT
BRANCH   2   9
HETATM    9  C   UNL     1      64.579   6.853   6.560  1.00  0.00     0.263 C 
HETATM   10  O   UNL     1      65.003   6.836   7.711  1.00  0.00    -0.265 OA
BRANCH   9  11
HETATM   11  O   UNL     1      63.508   6.133   6.131  1.00  0.00    -0.322 OA
BRANCH  11  12
HETATM   12  C   UNL     1      62.246   6.811   6.217  1.00  0.00     0.174 C 
HETATM   13  C   UNL     1      61.145   5.840   6.604  1.00  0.00     0.034 C 
ENDBRANCH  11  12
ENDBRANCH   9  11
ENDBRANCH   2   9
TORSDOF 3
ENDMDL
