MODEL 1
REMARK VINA RESULT:      -4.8      0.000      0.000
REMARK  1 active torsions:
REMARK  status: ('A' for Active; 'I' for Inactive)
REMARK    1  A    between atoms: C_1  and  C_2 
ROOT
HETATM    1  C   UNL     1      62.542   9.609   3.914  1.00  0.00     0.012 A 
HETATM    2  C   UNL     1      62.133  10.871   3.474  1.00  0.00     0.057 A 
HETATM    3  C   UNL     1      61.841  11.064   2.126  1.00  0.00     0.117 A 
HETATM    4  F   UNL     1      61.452  12.275   1.710  1.00  0.00    -0.206 F 
HETATM    5  C   UNL     1      62.646   8.557   2.991  1.00  0.00     0.015 A 
HETATM    6  C   UNL     1      62.347   8.765   1.641  1.00  0.00     0.004 A 
HETATM    7  C   UNL     1      61.944  10.026   1.208  1.00  0.00     0.042 A 
ENDROOT
BRANCH   1   8
HETATM    8  C   UNL     1      62.878   9.345   5.345  1.00  0.00     0.155 C 
HETATM    9  O   UNL     1      63.086  10.284   6.109  1.00  0.00    -0.293 OA
HETATM   10  C   UNL     1      62.954   7.916   5.819  1.00  0.00     0.096 C 
ENDBRANCH   1   8
TORSDOF 1
ENDMDL
MODEL 2
REMARK VINA RESULT:      -4.7      1.532      2.162
REMARK  1 active torsions:
REMARK  status: ('A' for Active; 'I' for Inactive)
REMARK    1  A    between atoms: C_1  and  C_2 
ROOT
HETATM    1  C   UNL     1      62.867   9.325   4.113  1.00  0.00     0.012 A 
HETATM    2  C   UNL     1      62.733   8.790   2.828  1.00  0.00     0.057 A 
HETATM    3  C   UNL     1      62.163   9.564   1.821  1.00  0.00     0.117 A 
HETATM    4  F   UNL     1      62.035   9.046   0.593  1.00  0.00    -0.206 F 
HETATM    5  C   UNL     1      62.430  10.635   4.363  1.00  0.00     0.015 A 
HETATM    6  C   UNL     1      61.861  11.401   3.341  1.00  0.00     0.004 A 
HETATM    7  C   UNL     1      61.726  10.860   2.065  1.00  0.00     0.042 A 
ENDROOT
BRANCH   1   8
HETATM    8  C   UNL     1      63.462   8.540   5.235  1.00  0.00     0.155 C 
HETATM    9  O   UNL     1      62.802   8.324   6.248  1.00  0.00    -0.293 OA
HETATM   10  C   UNL     1      64.872   8.027   5.093  1.00  0.00     0.096 C 
ENDBRANCH   1   8
TORSDOF 1
ENDMDL
MODEL 3
REMARK VINA RESULT:      -4.6      1.107      1.118
REMARK  1 active torsions:
REMARK  status: ('A' for Active; 'I' for Inactive)
REMARK    1  A    between atoms: C_1  and  C_2 
ROOT
HETATM    1  C   UNL     1      62.913   9.051   4.043  1.00  0.00     0.012 A 
HETATM    2  C   UNL     1      62.452  10.369   3.976  1.00  0.00     0.057 A 
HETATM    3  C   UNL     1      61.910  10.845   2.786  1.00  0.00     0.117 A 
HETATM    4  F   UNL     1      61.472  12.109   2.728  1.00  0.00    -0.206 F 
HETATM    5  C   UNL     1      62.815   8.229   2.909  1.00  0.00     0.015 A 
HETATM    6  C   UNL     1      62.265   8.720   1.721  1.00  0.00     0.004 A 
HETATM    7  C   UNL     1      61.812  10.036   1.661  1.00  0.00     0.042 A 
ENDROOT
BRANCH   1   8
HETATM    8  C   UNL     1      63.514   8.488   5.288  1.00  0.00     0.155 C 
HETATM    9  O   UNL     1      62.816   8.328   6.286  1.00  0.00    -0.293 OA
HETATM   10  C   UNL     1      64.977   8.125   5.287  1.00  0.00     0.096 C 
ENDBRANCH   1   8
TORSDOF 1
ENDMDL
MODEL 4
REMARK VINA RESULT:      -4.5      2.328      3.569
REMARK  1 active torsions:
REMARK  status: ('A' for Active; 'I' for Inactive)
REMARK    1  A    between atoms: C_1  and  C_2 
ROOT
HETATM    1  C   UNL     1      62.142   9.387   2.613  1.00  0.00     0.012 A 
HETATM    2  C   UNL     1      61.896  10.690   3.056  1.00  0.00     0.057 A 
HETATM    3  C   UNL     1      62.309  11.068   4.330  1.00  0.00     0.117 A 
HETATM    4  F   UNL     1      62.068  12.317   4.749  1.00  0.00    -0.206 F 
HETATM    5  C   UNL     1      62.807   8.485   3.459  1.00  0.00     0.015 A 
HETATM    6  C   UNL     1      63.218   8.881   4.736  1.00  0.00     0.004 A 
HETATM    7  C   UNL     1      62.965  10.180   5.172  1.00  0.00     0.042 A 
ENDROOT
BRANCH   1   8
HETATM    8  C   UNL     1      61.714   8.920   1.261  1.00  0.00     0.155 C 
HETATM    9  O   UNL     1      62.483   9.016   0.308  1.00  0.00    -0.293 OA
HETATM   10  C   UNL     1      60.335   8.334   1.100  1.00  0.00     0.096 C 
ENDBRANCH   1   8
TORSDOF 1
ENDMDL
MODEL 5
REMARK VINA RESULT:      -4.4      2.323      3.771
REMARK  1 active torsions:
REMARK  status: ('A' for Active; 'I' for Inactive)
REMARK    1  A    between atoms: C_1  and  C_2 
ROOT
HETATM    1  C   UNL     1      62.080   9.885   3.931  1.00  0.00     0.012 A 
HETATM    2  C   UNL     1      61.372   8.840   3.331  1.00  0.00     0.057 A 
HETATM    3  C   UNL     1      61.585   7.534   3.762  1.00  0.00     0.117 A 
HETATM    4  F   UNL     1      60.905   6.537   3.181  1.00  0.00    -0.206 F 
HETATM    5  C   UNL     1      62.988   9.599   4.963  1.00  0.00     0.015 A 
HETATM    6  C   UNL     1      63.190   8.282   5.386  1.00  0.00     0.004 A 
HETATM    7  C   UNL     1      62.484   7.245   4.780  1.00  0.00     0.042 A 
ENDROOT
BRANCH   1   8
HETATM    8  C   UNL     1      61.902  11.305   3.505  1.00  0.00     0.155 C 
HETATM    9  O   UNL     1      61.857  12.197   4.349  1.00  0.00    -0.293 OA
HETATM   10  C   UNL     1      61.780  11.610   2.035  1.00  0.00     0.096 C 
ENDBRANCH   1   8
TORSDOF 1
ENDMDL
MODEL 6
REMARK VINA RESULT:      -4.3      1.980      2.400
REMARK  1 active torsions:
REMARK  status: ('A' for Active; 'I' for Inactive)
REMARK    1  A    between atoms: C_1  and  C_2 
ROOT
HETATM    1  C   UNL     1      62.639   8.823   3.307  1.00  0.00     0.012 A 
HETATM    2  C   UNL     1      62.596   9.807   4.300  1.00  0.00     0.057 A 
HETATM    3  C   UNL     1      62.182  11.094   3.970  1.00  0.00     0.117 A 
HETATM    4  F   UNL     1      62.146  12.032   4.924  1.00  0.00    -0.206 F 
HETATM    5  C   UNL     1      62.256   9.149   1.997  1.00  0.00     0.015 A 
HETATM    6  C   UNL     1      61.840  10.447   1.681  1.00  0.00     0.004 A 
HETATM    7  C   UNL     1      61.805  11.423   2.674  1.00  0.00     0.042 A 
ENDROOT
BRANCH   1   8
HETATM    8  C   UNL     1      63.083   7.428   3.598  1.00  0.00     0.155 C 
HETATM    9  O   UNL     1      64.212   7.065   3.277  1.00  0.00    -0.293 OA
HETATM   10  C   UNL     1      62.125   6.491   4.288  1.00  0.00     0.096 C 
ENDBRANCH   1   8
TORSDOF 1
ENDMDL
MODEL 7
REMARK VINA RESULT:      -4.1      2.961      3.945
REMARK  1 active torsions:
REMARK  status: ('A' for Active; 'I' for Inactive)
REMARK    1  A    between atoms: C_1  and  C_2 
ROOT
HETATM    1  C   UNL     1      63.510   9.228   4.601  1.00  0.00     0.012 A 
HETATM    2  C   UNL     1      64.667   8.701   5.183  1.00  0.00     0.057 A 
HETATM    3  C   UNL     1      65.192   7.507   4.699  1.00  0.00     0.117 A 
HETATM    4  F   UNL     1      66.299   7.005   5.262  1.00  0.00    -0.206 F 
HETATM    5  C   UNL     1      62.903   8.547   3.534  1.00  0.00     0.015 A 
HETATM    6  C   UNL     1      63.444   7.349   3.057  1.00  0.00     0.004 A 
HETATM    7  C   UNL     1      64.594   6.827   3.645  1.00  0.00     0.042 A 
ENDROOT
BRANCH   1   8
HETATM    8  C   UNL     1      62.894  10.500   5.083  1.00  0.00     0.155 C 
HETATM    9  O   UNL     1      63.087  10.875   6.237  1.00  0.00    -0.293 OA
HETATM   10  C   UNL     1      62.043  11.300   4.130  1.00  0.00     0.096 C 
ENDBRANCH   1   8
TORSDOF 1
ENDMDL
MODEL 8
REMARK VINA RESULT:      -4.1      1.713      2.218
REMARK  1 active torsions:
REMARK  status: ('A' for Active; 'I' for Inactive)
REMARK    1  A    between atoms: C_1  and  C_2 
ROOT
HETATM    1  C   UNL     1      63.245   8.950   3.878  1.00  0.00     0.012 A 
HETATM    2  C   UNL     1      62.355   9.448   2.921  1.00  0.00     0.057 A 
HETATM    3  C   UNL     1      62.011   8.656   1.830  1.00  0.00     0.117 A 
HETATM    4  F   UNL     1      61.160   9.140   0.916  1.00  0.00    -0.206 F 
HETATM    5  C   UNL     1      63.770   7.657   3.723  1.00  0.00     0.015 A 
HETATM    6  C   UNL     1      63.413   6.873   2.622  1.00  0.00     0.004 A 
HETATM    7  C   UNL     1      62.530   7.377   1.671  1.00  0.00     0.042 A 
ENDROOT
BRANCH   1   8
HETATM    8  C   UNL     1      63.659   9.756   5.064  1.00  0.00     0.155 C 
HETATM    9  O   UNL     1      64.664   9.441   5.698  1.00  0.00    -0.293 OA
HETATM   10  C   UNL     1      62.825  10.948   5.457  1.00  0.00     0.096 C 
ENDBRANCH   1   8
TORSDOF 1
ENDMDL
MODEL 9
REMARK VINA RESULT:      -3.9      4.614      6.196
REMARK  1 active torsions:
REMARK  status: ('A' for Active; 'I' for Inactive)
REMARK    1  A    between atoms: C_1  and  C_2 
ROOT
HETATM    1  C   UNL     1      65.525   7.794   5.625  1.00  0.00     0.012 A 
HETATM    2  C   UNL     1      65.256   6.901   6.666  1.00  0.00     0.057 A 
HETATM    3  C   UNL     1      66.233   5.987   7.053  1.00  0.00     0.117 A 
HETATM    4  F   UNL     1      65.968   5.133   8.049  1.00  0.00    -0.206 F 
HETATM    5  C   UNL     1      66.777   7.758   4.992  1.00  0.00     0.015 A 
HETATM    6  C   UNL     1      67.749   6.836   5.393  1.00  0.00     0.004 A 
HETATM    7  C   UNL     1      67.473   5.946   6.428  1.00  0.00     0.042 A 
ENDROOT
BRANCH   1   8
HETATM    8  C   UNL     1      64.514   8.789   5.159  1.00  0.00     0.155 C 
HETATM    9  O   UNL     1      64.466   9.902   5.677  1.00  0.00    -0.293 OA
HETATM   10  C   UNL     1      63.568   8.398   4.053  1.00  0.00     0.096 C 
ENDBRANCH   1   8
TORSDOF 1
ENDMDL
