MODEL 1
REMARK VINA RESULT:      -5.2      0.000      0.000
REMARK  1 active torsions:
REMARK  status: ('A' for Active; 'I' for Inactive)
REMARK    1  A    between atoms: C_1  and  C_5 
ROOT
HETATM    1  C   UNL     1      64.910   8.207   5.382  1.00  0.00     0.150 C 
HETATM    2  N   UNL     1      65.068   6.922   5.371  1.00  0.00    -0.360 N 
ATOM      3  HN  UNL     1      64.475   6.222   4.924  1.00  0.00     0.162 HD
HETATM    4  O   UNL     1      65.782   8.981   6.065  1.00  0.00    -0.333 OA
HETATM    5  C   UNL     1      66.299   6.700   6.151  1.00  0.00     0.046 C 
HETATM    6  C   UNL     1      66.657   8.069   6.723  1.00  0.00     0.207 C 
HETATM    7  C   UNL     1      66.003   5.677   7.243  1.00  0.00     0.040 C 
HETATM    8  C   UNL     1      67.382   6.177   5.205  1.00  0.00     0.040 C 
ENDROOT
BRANCH   1   9
HETATM    9  C   UNL     1      63.840   8.937   4.697  1.00  0.00     0.030 A 
HETATM   10  C   UNL     1      63.388  10.136   5.235  1.00  0.00     0.103 A 
HETATM   11  N   UNL     1      62.387  10.877   4.697  1.00  0.00    -0.374 N 
HETATM   12  C   UNL     1      61.812  10.394   3.576  1.00  0.00     0.087 A 
ATOM     13  HN  UNL     1      62.084  11.755   5.119  1.00  0.00     0.164 HD
HETATM   14  C   UNL     1      62.196   9.212   2.960  1.00  0.00     0.018 A 
HETATM   15  C   UNL     1      63.230   8.471   3.531  1.00  0.00     0.018 A 
ENDBRANCH   1   9
TORSDOF 1
ENDMDL
MODEL 2
REMARK VINA RESULT:      -5.1      0.793      1.336
REMARK  1 active torsions:
REMARK  status: ('A' for Active; 'I' for Inactive)
REMARK    1  A    between atoms: C_1  and  C_5 
ROOT
HETATM    1  C   UNL     1      64.899   8.207   5.407  1.00  0.00     0.150 C 
HETATM    2  N   UNL     1      65.057   6.922   5.385  1.00  0.00    -0.360 N 
ATOM      3  HN  UNL     1      64.460   6.225   4.938  1.00  0.00     0.162 HD
HETATM    4  O   UNL     1      65.778   8.975   6.087  1.00  0.00    -0.333 OA
HETATM    5  C   UNL     1      66.295   6.693   6.151  1.00  0.00     0.046 C 
HETATM    6  C   UNL     1      66.658   8.059   6.730  1.00  0.00     0.207 C 
HETATM    7  C   UNL     1      66.008   5.663   7.239  1.00  0.00     0.040 C 
HETATM    8  C   UNL     1      67.369   6.177   5.192  1.00  0.00     0.040 C 
ENDROOT
BRANCH   1   9
HETATM    9  C   UNL     1      63.823   8.942   4.737  1.00  0.00     0.030 A 
HETATM   10  C   UNL     1      63.292   8.437   3.557  1.00  0.00     0.103 A 
HETATM   11  N   UNL     1      62.313   9.050   2.844  1.00  0.00    -0.374 N 
HETATM   12  C   UNL     1      61.853  10.221   3.332  1.00  0.00     0.087 A 
ATOM     13  HN  UNL     1      61.945   8.646   1.982  1.00  0.00     0.164 HD
HETATM   14  C   UNL     1      62.313  10.803   4.503  1.00  0.00     0.018 A 
HETATM   15  C   UNL     1      63.316  10.150   5.219  1.00  0.00     0.018 A 
ENDBRANCH   1   9
TORSDOF 1
ENDMDL
MODEL 3
REMARK VINA RESULT:      -5.1      1.158      1.492
REMARK  1 active torsions:
REMARK  status: ('A' for Active; 'I' for Inactive)
REMARK    1  A    between atoms: C_1  and  C_5 
ROOT
HETATM    1  C   UNL     1      64.176   8.293   5.357  1.00  0.00     0.150 C 
HETATM    2  N   UNL     1      65.405   8.003   5.070  1.00  0.00    -0.360 N 
ATOM      3  HN  UNL     1      65.989   8.408   4.338  1.00  0.00     0.162 HD
HETATM    4  O   UNL     1      63.544   7.620   6.344  1.00  0.00    -0.333 OA
HETATM    5  C   UNL     1      65.768   6.955   6.041  1.00  0.00     0.046 C 
HETATM    6  C   UNL     1      64.467   6.619   6.765  1.00  0.00     0.207 C 
HETATM    7  C   UNL     1      66.329   5.759   5.276  1.00  0.00     0.040 C 
HETATM    8  C   UNL     1      66.820   7.524   6.994  1.00  0.00     0.040 C 
ENDROOT
BRANCH   1   9
HETATM    9  C   UNL     1      63.370   9.322   4.697  1.00  0.00     0.030 A 
HETATM   10  C   UNL     1      63.170  10.539   5.338  1.00  0.00     0.103 A 
HETATM   11  N   UNL     1      62.421  11.549   4.828  1.00  0.00    -0.374 N 
HETATM   12  C   UNL     1      61.843  11.328   3.628  1.00  0.00     0.087 A 
ATOM     13  HN  UNL     1      62.299  12.431   5.327  1.00  0.00     0.164 HD
HETATM   14  C   UNL     1      61.987  10.152   2.908  1.00  0.00     0.018 A 
HETATM   15  C   UNL     1      62.766   9.131   3.452  1.00  0.00     0.018 A 
ENDBRANCH   1   9
TORSDOF 1
ENDMDL
MODEL 4
REMARK VINA RESULT:      -4.8      1.685      4.980
REMARK  1 active torsions:
REMARK  status: ('A' for Active; 'I' for Inactive)
REMARK    1  A    between atoms: C_1  and  C_5 
ROOT
HETATM    1  C   UNL     1      64.168   8.512   4.558  1.00  0.00     0.150 C 
HETATM    2  N   UNL     1      63.466   8.221   3.510  1.00  0.00    -0.360 N 
ATOM      3  HN  UNL     1      63.678   7.534   2.785  1.00  0.00     0.162 HD
HETATM    4  O   UNL     1      63.747   9.486   5.394  1.00  0.00    -0.333 OA
HETATM    5  C   UNL     1      62.292   9.107   3.600  1.00  0.00     0.046 C 
HETATM    6  C   UNL     1      62.588  10.036   4.775  1.00  0.00     0.207 C 
HETATM    7  C   UNL     1      62.155   9.866   2.284  1.00  0.00     0.040 C 
HETATM    8  C   UNL     1      61.055   8.244   3.854  1.00  0.00     0.040 C 
ENDROOT
BRANCH   1   9
HETATM    9  C   UNL     1      65.422   7.862   4.948  1.00  0.00     0.030 A 
HETATM   10  C   UNL     1      66.089   8.306   6.083  1.00  0.00     0.103 A 
HETATM   11  N   UNL     1      67.268   7.793   6.518  1.00  0.00    -0.374 N 
HETATM   12  C   UNL     1      67.803   6.797   5.780  1.00  0.00     0.087 A 
ATOM     13  HN  UNL     1      67.727   8.143   7.358  1.00  0.00     0.164 HD
HETATM   14  C   UNL     1      67.211   6.280   4.637  1.00  0.00     0.018 A 
HETATM   15  C   UNL     1      65.998   6.822   4.215  1.00  0.00     0.018 A 
ENDBRANCH   1   9
TORSDOF 1
ENDMDL
MODEL 5
REMARK VINA RESULT:      -4.5      1.798      5.253
REMARK  1 active torsions:
REMARK  status: ('A' for Active; 'I' for Inactive)
REMARK    1  A    between atoms: C_1  and  C_5 
ROOT
HETATM    1  C   UNL     1      64.681   7.534   5.989  1.00  0.00     0.150 C 
HETATM    2  N   UNL     1      64.725   8.621   5.287  1.00  0.00    -0.360 N 
ATOM      3  HN  UNL     1      65.552   9.136   4.982  1.00  0.00     0.162 HD
HETATM    4  O   UNL     1      63.484   7.012   6.336  1.00  0.00    -0.333 OA
HETATM    5  C   UNL     1      63.311   8.947   5.031  1.00  0.00     0.046 C 
HETATM    6  C   UNL     1      62.517   7.948   5.868  1.00  0.00     0.207 C 
HETATM    7  C   UNL     1      63.060  10.389   5.460  1.00  0.00     0.040 C 
HETATM    8  C   UNL     1      63.040   8.778   3.535  1.00  0.00     0.040 C 
ENDROOT
BRANCH   1   9
HETATM    9  C   UNL     1      65.845   6.779   6.461  1.00  0.00     0.030 A 
HETATM   10  C   UNL     1      66.552   7.245   7.562  1.00  0.00     0.103 A 
HETATM   11  N   UNL     1      67.658   6.639   8.064  1.00  0.00    -0.374 N 
HETATM   12  C   UNL     1      68.074   5.521   7.432  1.00  0.00     0.087 A 
ATOM     13  HN  UNL     1      68.149   7.009   8.877  1.00  0.00     0.164 HD
HETATM   14  C   UNL     1      67.432   4.974   6.331  1.00  0.00     0.018 A 
HETATM   15  C   UNL     1      66.297   5.614   5.837  1.00  0.00     0.018 A 
ENDBRANCH   1   9
TORSDOF 1
ENDMDL
MODEL 6
REMARK VINA RESULT:      -4.4      1.959      5.531
REMARK  1 active torsions:
REMARK  status: ('A' for Active; 'I' for Inactive)
REMARK    1  A    between atoms: C_1  and  C_5 
ROOT
HETATM    1  C   UNL     1      64.750   7.070   6.063  1.00  0.00     0.150 C 
HETATM    2  N   UNL     1      63.592   7.593   6.313  1.00  0.00    -0.360 N 
ATOM      3  HN  UNL     1      63.094   7.615   7.204  1.00  0.00     0.162 HD
HETATM    4  O   UNL     1      65.239   7.102   4.804  1.00  0.00    -0.333 OA
HETATM    5  C   UNL     1      63.156   8.148   5.019  1.00  0.00     0.046 C 
HETATM    6  C   UNL     1      64.200   7.670   4.013  1.00  0.00     0.207 C 
HETATM    7  C   UNL     1      61.763   7.612   4.706  1.00  0.00     0.040 C 
HETATM    8  C   UNL     1      63.132   9.673   5.132  1.00  0.00     0.040 C 
ENDROOT
BRANCH   1   9
HETATM    9  C   UNL     1      65.622   6.426   7.049  1.00  0.00     0.030 A 
HETATM   10  C   UNL     1      65.464   5.070   7.308  1.00  0.00     0.103 A 
HETATM   11  N   UNL     1      66.199   4.382   8.218  1.00  0.00    -0.374 N 
HETATM   12  C   UNL     1      67.127   5.085   8.901  1.00  0.00     0.087 A 
ATOM     13  HN  UNL     1      66.056   3.385   8.379  1.00  0.00     0.164 HD
HETATM   14  C   UNL     1      67.365   6.437   8.710  1.00  0.00     0.018 A 
HETATM   15  C   UNL     1      66.599   7.120   7.766  1.00  0.00     0.018 A 
ENDBRANCH   1   9
TORSDOF 1
ENDMDL
MODEL 7
REMARK VINA RESULT:      -4.3      2.001      2.511
REMARK  1 active torsions:
REMARK  status: ('A' for Active; 'I' for Inactive)
REMARK    1  A    between atoms: C_1  and  C_5 
ROOT
HETATM    1  C   UNL     1      63.158   8.095   4.619  1.00  0.00     0.150 C 
HETATM    2  N   UNL     1      63.448   6.973   4.043  1.00  0.00    -0.360 N 
ATOM      3  HN  UNL     1      63.326   6.724   3.061  1.00  0.00     0.162 HD
HETATM    4  O   UNL     1      63.353   8.233   5.949  1.00  0.00    -0.333 OA
HETATM    5  C   UNL     1      63.994   6.137   5.127  1.00  0.00     0.046 C 
HETATM    6  C   UNL     1      63.773   6.949   6.401  1.00  0.00     0.207 C 
HETATM    7  C   UNL     1      63.236   4.813   5.146  1.00  0.00     0.040 C 
HETATM    8  C   UNL     1      65.480   5.901   4.853  1.00  0.00     0.040 C 
ENDROOT
BRANCH   1   9
HETATM    9  C   UNL     1      62.621   9.282   3.947  1.00  0.00     0.030 A 
HETATM   10  C   UNL     1      62.291   9.204   2.600  1.00  0.00     0.103 A 
HETATM   11  N   UNL     1      61.813  10.248   1.876  1.00  0.00    -0.374 N 
HETATM   12  C   UNL     1      61.665  11.420   2.530  1.00  0.00     0.087 A 
ATOM     13  HN  UNL     1      61.577  10.152   0.889  1.00  0.00     0.164 HD
HETATM   14  C   UNL     1      61.960  11.596   3.874  1.00  0.00     0.018 A 
HETATM   15  C   UNL     1      62.446  10.506   4.595  1.00  0.00     0.018 A 
ENDBRANCH   1   9
TORSDOF 1
ENDMDL
MODEL 8
REMARK VINA RESULT:      -4.3      2.065      2.730
REMARK  1 active torsions:
REMARK  status: ('A' for Active; 'I' for Inactive)
REMARK    1  A    between atoms: C_1  and  C_5 
ROOT
HETATM    1  C   UNL     1      64.857   6.716   6.580  1.00  0.00     0.150 C 
HETATM    2  N   UNL     1      65.930   7.242   7.078  1.00  0.00    -0.360 N 
ATOM      3  HN  UNL     1      66.280   8.191   6.947  1.00  0.00     0.162 HD
HETATM    4  O   UNL     1      64.570   5.420   6.832  1.00  0.00    -0.333 OA
HETATM    5  C   UNL     1      66.530   6.158   7.877  1.00  0.00     0.046 C 
HETATM    6  C   UNL     1      65.685   4.925   7.566  1.00  0.00     0.207 C 
HETATM    7  C   UNL     1      67.983   5.987   7.447  1.00  0.00     0.040 C 
HETATM    8  C   UNL     1      66.449   6.546   9.355  1.00  0.00     0.040 C 
ENDROOT
BRANCH   1   9
HETATM    9  C   UNL     1      63.880   7.413   5.739  1.00  0.00     0.030 A 
HETATM   10  C   UNL     1      62.632   6.837   5.533  1.00  0.00     0.103 A 
HETATM   11  N   UNL     1      61.666   7.384   4.753  1.00  0.00    -0.374 N 
HETATM   12  C   UNL     1      61.964   8.555   4.151  1.00  0.00     0.087 A 
ATOM     13  HN  UNL     1      60.760   6.933   4.627  1.00  0.00     0.164 HD
HETATM   14  C   UNL     1      63.177   9.211   4.300  1.00  0.00     0.018 A 
HETATM   15  C   UNL     1      64.151   8.630   5.110  1.00  0.00     0.018 A 
ENDBRANCH   1   9
TORSDOF 1
ENDMDL
MODEL 9
REMARK VINA RESULT:      -4.2      4.120      6.032
REMARK  1 active torsions:
REMARK  status: ('A' for Active; 'I' for Inactive)
REMARK    1  A    between atoms: C_1  and  C_5 
ROOT
HETATM    1  C   UNL     1      60.598   8.035   3.293  1.00  0.00     0.150 C 
HETATM    2  N   UNL     1      60.501   8.699   2.185  1.00  0.00    -0.360 N 
ATOM      3  HN  UNL     1      59.672   8.828   1.604  1.00  0.00     0.162 HD
HETATM    4  O   UNL     1      61.796   7.939   3.910  1.00  0.00    -0.333 OA
HETATM    5  C   UNL     1      61.858   9.225   1.956  1.00  0.00     0.046 C 
HETATM    6  C   UNL     1      62.722   8.575   3.034  1.00  0.00     0.207 C 
HETATM    7  C   UNL     1      62.299   8.833   0.549  1.00  0.00     0.040 C 
HETATM    8  C   UNL     1      61.817  10.747   2.101  1.00  0.00     0.040 C 
ENDROOT
BRANCH   1   9
HETATM    9  C   UNL     1      59.495   7.354   3.975  1.00  0.00     0.030 A 
HETATM   10  C   UNL     1      59.777   6.284   4.815  1.00  0.00     0.103 A 
HETATM   11  N   UNL     1      58.831   5.568   5.474  1.00  0.00    -0.374 N 
HETATM   12  C   UNL     1      57.547   5.937   5.277  1.00  0.00     0.087 A 
ATOM     13  HN  UNL     1      59.076   4.790   6.086  1.00  0.00     0.164 HD
HETATM   14  C   UNL     1      57.165   6.993   4.463  1.00  0.00     0.018 A 
HETATM   15  C   UNL     1      58.157   7.715   3.802  1.00  0.00     0.018 A 
ENDBRANCH   1   9
TORSDOF 1
ENDMDL
