MODEL 1
REMARK VINA RESULT:      -4.7      0.000      0.000
REMARK  2 active torsions:
REMARK  status: ('A' for Active; 'I' for Inactive)
REMARK    1  A    between atoms: C_1  and  C_4 
REMARK    2  A    between atoms: C_4  and  O_5 
ROOT
HETATM    1  C   UNL     1      62.609  10.602   4.585  1.00  0.00    -0.013 A 
HETATM    2  C   UNL     1      62.902   9.278   4.226  1.00  0.00     0.042 A 
HETATM    3 CL   UNL     1      63.634   8.165   5.325  1.00  0.00    -0.084 Cl
HETATM    4  C   UNL     1      62.018  11.439   3.618  1.00  0.00     0.011 A 
HETATM    5  C   UNL     1      62.614   8.810   2.938  1.00  0.00     0.024 A 
HETATM    6  C   UNL     1      61.731  10.969   2.335  1.00  0.00     0.001 A 
HETATM    7  C   UNL     1      62.027   9.653   1.995  1.00  0.00     0.002 A 
ENDROOT
BRANCH   1   8
HETATM    8  C   UNL     1      62.865  11.171   5.955  1.00  0.00     0.204 C 
BRANCH   8   9
HETATM    9  O   UNL     1      64.259  11.390   6.143  1.00  0.00    -0.396 OA
HETATM   10  H   UNL     1      64.679  11.553   5.283  1.00  0.00     0.209 HD
ENDBRANCH   8   9
ENDBRANCH   1   8
TORSDOF 2
ENDMDL
MODEL 2
REMARK VINA RESULT:      -4.5      1.798      2.553
REMARK  2 active torsions:
REMARK  status: ('A' for Active; 'I' for Inactive)
REMARK    1  A    between atoms: C_1  and  C_4 
REMARK    2  A    between atoms: C_4  and  O_5 
ROOT
HETATM    1  C   UNL     1      62.898  10.009   4.798  1.00  0.00    -0.013 A 
HETATM    2  C   UNL     1      62.392  10.099   3.493  1.00  0.00     0.042 A 
HETATM    3 CL   UNL     1      61.749  11.569   2.852  1.00  0.00    -0.084 Cl
HETATM    4  C   UNL     1      63.394   8.764   5.235  1.00  0.00     0.011 A 
HETATM    5  C   UNL     1      62.382   8.978   2.654  1.00  0.00     0.024 A 
HETATM    6  C   UNL     1      63.385   7.649   4.396  1.00  0.00     0.001 A 
HETATM    7  C   UNL     1      62.881   7.756   3.104  1.00  0.00     0.002 A 
ENDROOT
BRANCH   1   8
HETATM    8  C   UNL     1      62.965  11.173   5.749  1.00  0.00     0.204 C 
BRANCH   8   9
HETATM    9  O   UNL     1      64.298  11.348   6.217  1.00  0.00    -0.396 OA
HETATM   10  H   UNL     1      64.879  10.701   5.785  1.00  0.00     0.209 HD
ENDBRANCH   8   9
ENDBRANCH   1   8
TORSDOF 2
ENDMDL
MODEL 3
REMARK VINA RESULT:      -4.3      1.682      2.410
REMARK  2 active torsions:
REMARK  status: ('A' for Active; 'I' for Inactive)
REMARK    1  A    between atoms: C_1  and  C_4 
REMARK    2  A    between atoms: C_4  and  O_5 
ROOT
HETATM    1  C   UNL     1      62.976   9.113   4.015  1.00  0.00    -0.013 A 
HETATM    2  C   UNL     1      62.451  10.410   3.922  1.00  0.00     0.042 A 
HETATM    3 CL   UNL     1      62.472  11.511   5.252  1.00  0.00    -0.084 Cl
HETATM    4  C   UNL     1      62.907   8.283   2.879  1.00  0.00     0.011 A 
HETATM    5  C   UNL     1      61.873  10.860   2.728  1.00  0.00     0.024 A 
HETATM    6  C   UNL     1      62.332   8.735   1.689  1.00  0.00     0.001 A 
HETATM    7  C   UNL     1      61.816  10.025   1.613  1.00  0.00     0.002 A 
ENDROOT
BRANCH   1   8
HETATM    8  C   UNL     1      63.635   8.566   5.254  1.00  0.00     0.204 C 
BRANCH   8   9
HETATM    9  O   UNL     1      64.865   9.242   5.494  1.00  0.00    -0.396 OA
HETATM   10  H   UNL     1      64.771   9.819   6.268  1.00  0.00     0.209 HD
ENDBRANCH   8   9
ENDBRANCH   1   8
TORSDOF 2
ENDMDL
MODEL 4
REMARK VINA RESULT:      -4.3      1.280      1.521
REMARK  2 active torsions:
REMARK  status: ('A' for Active; 'I' for Inactive)
REMARK    1  A    between atoms: C_1  and  C_4 
REMARK    2  A    between atoms: C_4  and  O_5 
ROOT
HETATM    1  C   UNL     1      62.457  10.000   3.656  1.00  0.00    -0.013 A 
HETATM    2  C   UNL     1      62.954   8.691   3.732  1.00  0.00     0.042 A 
HETATM    3 CL   UNL     1      63.665   8.055   5.172  1.00  0.00    -0.084 Cl
HETATM    4  C   UNL     1      61.902  10.433   2.436  1.00  0.00     0.011 A 
HETATM    5  C   UNL     1      62.897   7.843   2.619  1.00  0.00     0.024 A 
HETATM    6  C   UNL     1      61.845   9.584   1.328  1.00  0.00     0.001 A 
HETATM    7  C   UNL     1      62.341   8.288   1.420  1.00  0.00     0.002 A 
ENDROOT
BRANCH   1   8
HETATM    8  C   UNL     1      62.460  10.962   4.815  1.00  0.00     0.204 C 
BRANCH   8   9
HETATM    9  O   UNL     1      62.076  12.260   4.375  1.00  0.00    -0.396 OA
HETATM   10  H   UNL     1      62.823  12.871   4.480  1.00  0.00     0.209 HD
ENDBRANCH   8   9
ENDBRANCH   1   8
TORSDOF 2
ENDMDL
MODEL 5
REMARK VINA RESULT:      -4.2      1.375      1.562
REMARK  2 active torsions:
REMARK  status: ('A' for Active; 'I' for Inactive)
REMARK    1  A    between atoms: C_1  and  C_4 
REMARK    2  A    between atoms: C_4  and  O_5 
ROOT
HETATM    1  C   UNL     1      62.733   9.572   4.107  1.00  0.00    -0.013 A 
HETATM    2  C   UNL     1      62.750   8.753   2.969  1.00  0.00     0.042 A 
HETATM    3 CL   UNL     1      63.362   7.138   3.003  1.00  0.00    -0.084 Cl
HETATM    4  C   UNL     1      62.221  10.879   3.979  1.00  0.00     0.011 A 
HETATM    5  C   UNL     1      62.272   9.230   1.742  1.00  0.00     0.024 A 
HETATM    6  C   UNL     1      61.743  11.350   2.755  1.00  0.00     0.001 A 
HETATM    7  C   UNL     1      61.767  10.525   1.636  1.00  0.00     0.002 A 
ENDROOT
BRANCH   1   8
HETATM    8  C   UNL     1      63.205   9.125   5.464  1.00  0.00     0.204 C 
BRANCH   8   9
HETATM    9  O   UNL     1      64.587   9.426   5.627  1.00  0.00    -0.396 OA
HETATM   10  H   UNL     1      64.978   8.814   6.271  1.00  0.00     0.209 HD
ENDBRANCH   8   9
ENDBRANCH   1   8
TORSDOF 2
ENDMDL
MODEL 6
REMARK VINA RESULT:      -3.9      2.451      3.508
REMARK  2 active torsions:
REMARK  status: ('A' for Active; 'I' for Inactive)
REMARK    1  A    between atoms: C_1  and  C_4 
REMARK    2  A    between atoms: C_4  and  O_5 
ROOT
HETATM    1  C   UNL     1      62.950   8.765   3.438  1.00  0.00    -0.013 A 
HETATM    2  C   UNL     1      62.258   9.644   2.592  1.00  0.00     0.042 A 
HETATM    3 CL   UNL     1      61.843   9.226   0.968  1.00  0.00    -0.084 Cl
HETATM    4  C   UNL     1      63.251   9.197   4.745  1.00  0.00     0.011 A 
HETATM    5  C   UNL     1      61.882  10.916   3.042  1.00  0.00     0.024 A 
HETATM    6  C   UNL     1      62.873  10.465   5.191  1.00  0.00     0.001 A 
HETATM    7  C   UNL     1      62.186  11.324   4.339  1.00  0.00     0.002 A 
ENDROOT
BRANCH   1   8
HETATM    8  C   UNL     1      63.366   7.375   3.037  1.00  0.00     0.204 C 
BRANCH   8   9
HETATM    9  O   UNL     1      64.651   7.074   3.571  1.00  0.00    -0.396 OA
HETATM   10  H   UNL     1      64.573   6.908   4.525  1.00  0.00     0.209 HD
ENDBRANCH   8   9
ENDBRANCH   1   8
TORSDOF 2
ENDMDL
MODEL 7
REMARK VINA RESULT:      -3.6     11.995     12.832
REMARK  2 active torsions:
REMARK  status: ('A' for Active; 'I' for Inactive)
REMARK    1  A    between atoms: C_1  and  C_4 
REMARK    2  A    between atoms: C_4  and  O_5 
ROOT
HETATM    1  C   UNL     1      58.027   2.484  11.835  1.00  0.00    -0.013 A 
HETATM    2  C   UNL     1      56.912   2.283  12.661  1.00  0.00     0.042 A 
HETATM    3 CL   UNL     1      55.322   2.774  12.200  1.00  0.00    -0.084 Cl
HETATM    4  C   UNL     1      59.287   2.057  12.300  1.00  0.00     0.011 A 
HETATM    5  C   UNL     1      57.056   1.675  13.914  1.00  0.00     0.024 A 
HETATM    6  C   UNL     1      59.426   1.450  13.549  1.00  0.00     0.001 A 
HETATM    7  C   UNL     1      58.310   1.257  14.357  1.00  0.00     0.002 A 
ENDROOT
BRANCH   1   8
HETATM    8  C   UNL     1      57.950   3.107  10.466  1.00  0.00     0.204 C 
BRANCH   8   9
HETATM    9  O   UNL     1      58.639   4.352  10.455  1.00  0.00    -0.396 OA
HETATM   10  H   UNL     1      59.277   4.362   9.722  1.00  0.00     0.209 HD
ENDBRANCH   8   9
ENDBRANCH   1   8
TORSDOF 2
ENDMDL
MODEL 8
REMARK VINA RESULT:      -3.4     13.882     14.550
REMARK  2 active torsions:
REMARK  status: ('A' for Active; 'I' for Inactive)
REMARK    1  A    between atoms: C_1  and  C_4 
REMARK    2  A    between atoms: C_4  and  O_5 
ROOT
HETATM    1  C   UNL     1      56.798   1.704  13.591  1.00  0.00    -0.013 A 
HETATM    2  C   UNL     1      56.807   0.376  14.040  1.00  0.00     0.042 A 
HETATM    3 CL   UNL     1      55.405  -0.384  14.703  1.00  0.00    -0.084 Cl
HETATM    4  C   UNL     1      57.993   2.241  13.073  1.00  0.00     0.011 A 
HETATM    5  C   UNL     1      57.978  -0.390  13.973  1.00  0.00     0.024 A 
HETATM    6  C   UNL     1      59.158   1.474  13.006  1.00  0.00     0.001 A 
HETATM    7  C   UNL     1      59.150   0.157  13.454  1.00  0.00     0.002 A 
ENDROOT
BRANCH   1   8
HETATM    8  C   UNL     1      55.575   2.582  13.607  1.00  0.00     0.204 C 
BRANCH   8   9
HETATM    9  O   UNL     1      55.337   3.067  14.924  1.00  0.00    -0.396 OA
HETATM   10  H   UNL     1      54.480   3.524  14.951  1.00  0.00     0.209 HD
ENDBRANCH   8   9
ENDBRANCH   1   8
TORSDOF 2
ENDMDL
MODEL 9
REMARK VINA RESULT:      -3.3      2.421      3.297
REMARK  2 active torsions:
REMARK  status: ('A' for Active; 'I' for Inactive)
REMARK    1  A    between atoms: C_1  and  C_4 
REMARK    2  A    between atoms: C_4  and  O_5 
ROOT
HETATM    1  C   UNL     1      61.755   8.827   3.698  1.00  0.00    -0.013 A 
HETATM    2  C   UNL     1      62.623   8.365   4.698  1.00  0.00     0.042 A 
HETATM    3 CL   UNL     1      64.097   9.176   5.087  1.00  0.00    -0.084 Cl
HETATM    4  C   UNL     1      60.579   8.094   3.445  1.00  0.00     0.011 A 
HETATM    5  C   UNL     1      62.322   7.203   5.420  1.00  0.00     0.024 A 
HETATM    6  C   UNL     1      60.281   6.937   4.168  1.00  0.00     0.001 A 
HETATM    7  C   UNL     1      61.152   6.492   5.158  1.00  0.00     0.002 A 
ENDROOT
BRANCH   1   8
HETATM    8  C   UNL     1      61.996  10.079   2.897  1.00  0.00     0.204 C 
BRANCH   8   9
HETATM    9  O   UNL     1      61.410  11.200   3.550  1.00  0.00    -0.396 OA
HETATM   10  H   UNL     1      62.110  11.755   3.930  1.00  0.00     0.209 HD
ENDBRANCH   8   9
ENDBRANCH   1   8
TORSDOF 2
ENDMDL
