MODEL 1
REMARK VINA RESULT:      -5.1      0.000      0.000
REMARK  2 active torsions:
REMARK  status: ('A' for Active; 'I' for Inactive)
REMARK    1  A    between atoms: C_1  and  C_2 
REMARK    2  A    between atoms: C_5  and  N_6 
ROOT
HETATM    1  C   UNL     1      62.417   9.110   3.097  1.00  0.00    -0.051 A 
HETATM    2  C   UNL     1      63.366   8.650   4.024  1.00  0.00     0.010 A 
HETATM    3  C   UNL     1      61.874  10.388   3.322  1.00  0.00     0.010 A 
HETATM    4  C   UNL     1      63.153  10.668   5.368  1.00  0.00     0.025 A 
HETATM    5  C   UNL     1      62.253  11.161   4.426  1.00  0.00     0.029 A 
HETATM    6  C   UNL     1      63.742   9.428   5.127  1.00  0.00     0.029 A 
ENDROOT
BRANCH   1   7
HETATM    7  C   UNL     1      61.990   8.289   1.867  1.00  0.00    -0.024 C 
HETATM    8  C   UNL     1      60.486   7.935   1.847  1.00  0.00     0.019 C 
HETATM    9  C   UNL     1      62.772   6.958   1.831  1.00  0.00     0.019 C 
HETATM   10  C   UNL     1      62.289   9.087   0.580  1.00  0.00     0.019 C 
ENDBRANCH   1   7
BRANCH   4  11
HETATM   11  N   UNL     1      63.630  11.490   6.394  1.00  0.00    -0.399 N 
HETATM   12  H   UNL     1      63.223  11.447   7.290  1.00  0.00     0.156 HD
HETATM   13  H   UNL     1      64.375  12.112   6.222  1.00  0.00     0.156 HD
ENDBRANCH   4  11
TORSDOF 2
ENDMDL
MODEL 2
REMARK VINA RESULT:      -5.0      0.158      1.971
REMARK  2 active torsions:
REMARK  status: ('A' for Active; 'I' for Inactive)
REMARK    1  A    between atoms: C_1  and  C_2 
REMARK    2  A    between atoms: C_5  and  N_6 
ROOT
HETATM    1  C   UNL     1      62.444   9.045   3.080  1.00  0.00    -0.051 A 
HETATM    2  C   UNL     1      61.893  10.323   3.264  1.00  0.00     0.010 A 
HETATM    3  C   UNL     1      63.356   8.599   4.053  1.00  0.00     0.010 A 
HETATM    4  C   UNL     1      63.197  10.686   5.287  1.00  0.00     0.025 A 
HETATM    5  C   UNL     1      63.709   9.398   5.148  1.00  0.00     0.029 A 
HETATM    6  C   UNL     1      62.248  11.119   4.362  1.00  0.00     0.029 A 
ENDROOT
BRANCH   1   7
HETATM    7  C   UNL     1      62.066   8.140   1.894  1.00  0.00    -0.024 C 
HETATM    8  C   UNL     1      62.927   6.860   1.790  1.00  0.00     0.019 C 
HETATM    9  C   UNL     1      62.240   8.915   0.570  1.00  0.00     0.019 C 
HETATM   10  C   UNL     1      60.596   7.692   2.029  1.00  0.00     0.019 C 
ENDBRANCH   1   7
BRANCH   4  11
HETATM   11  N   UNL     1      63.445  11.429   6.446  1.00  0.00    -0.399 N 
HETATM   12  H   UNL     1      64.076  11.091   7.122  1.00  0.00     0.156 HD
HETATM   13  H   UNL     1      62.989  12.291   6.586  1.00  0.00     0.156 HD
ENDBRANCH   4  11
TORSDOF 2
ENDMDL
MODEL 3
REMARK VINA RESULT:      -4.5      2.109      3.354
REMARK  2 active torsions:
REMARK  status: ('A' for Active; 'I' for Inactive)
REMARK    1  A    between atoms: C_1  and  C_2 
REMARK    2  A    between atoms: C_5  and  N_6 
ROOT
HETATM    1  C   UNL     1      62.721   8.706   3.907  1.00  0.00    -0.051 A 
HETATM    2  C   UNL     1      62.549   9.932   4.567  1.00  0.00     0.010 A 
HETATM    3  C   UNL     1      62.465   8.685   2.524  1.00  0.00     0.010 A 
HETATM    4  C   UNL     1      61.825  11.029   2.519  1.00  0.00     0.025 A 
HETATM    5  C   UNL     1      62.045   9.833   1.839  1.00  0.00     0.029 A 
HETATM    6  C   UNL     1      62.129  11.078   3.878  1.00  0.00     0.029 A 
ENDROOT
BRANCH   1   7
HETATM    7  C   UNL     1      63.193   7.431   4.629  1.00  0.00    -0.024 C 
HETATM    8  C   UNL     1      62.827   7.395   6.130  1.00  0.00     0.019 C 
HETATM    9  C   UNL     1      64.729   7.314   4.531  1.00  0.00     0.019 C 
HETATM   10  C   UNL     1      62.548   6.192   3.972  1.00  0.00     0.019 C 
ENDBRANCH   1   7
BRANCH   4  11
HETATM   11  N   UNL     1      61.536  12.203   1.816  1.00  0.00    -0.399 N 
HETATM   12  H   UNL     1      61.765  12.275   0.861  1.00  0.00     0.156 HD
HETATM   13  H   UNL     1      61.102  12.959   2.275  1.00  0.00     0.156 HD
ENDBRANCH   4  11
TORSDOF 2
ENDMDL
MODEL 4
REMARK VINA RESULT:      -4.5      2.125      3.852
REMARK  2 active torsions:
REMARK  status: ('A' for Active; 'I' for Inactive)
REMARK    1  A    between atoms: C_1  and  C_2 
REMARK    2  A    between atoms: C_5  and  N_6 
ROOT
HETATM    1  C   UNL     1      63.565   8.549   4.467  1.00  0.00    -0.051 A 
HETATM    2  C   UNL     1      63.192   9.771   5.050  1.00  0.00     0.010 A 
HETATM    3  C   UNL     1      63.140   8.317   3.147  1.00  0.00     0.010 A 
HETATM    4  C   UNL     1      61.961  10.440   3.060  1.00  0.00     0.025 A 
HETATM    5  C   UNL     1      62.370   9.257   2.449  1.00  0.00     0.029 A 
HETATM    6  C   UNL     1      62.422  10.708   4.347  1.00  0.00     0.029 A 
ENDROOT
BRANCH   1   7
HETATM    7  C   UNL     1      64.420   7.503   5.204  1.00  0.00    -0.024 C 
HETATM    8  C   UNL     1      65.722   8.078   5.807  1.00  0.00     0.019 C 
HETATM    9  C   UNL     1      64.828   6.380   4.226  1.00  0.00     0.019 C 
HETATM   10  C   UNL     1      63.608   6.893   6.366  1.00  0.00     0.019 C 
ENDBRANCH   1   7
BRANCH   4  11
HETATM   11  N   UNL     1      61.308  11.432   2.321  1.00  0.00    -0.399 N 
HETATM   12  H   UNL     1      61.768  12.280   2.120  1.00  0.00     0.156 HD
HETATM   13  H   UNL     1      60.388  11.284   2.001  1.00  0.00     0.156 HD
ENDBRANCH   4  11
TORSDOF 2
ENDMDL
MODEL 5
REMARK VINA RESULT:      -4.4      2.095      3.540
REMARK  2 active torsions:
REMARK  status: ('A' for Active; 'I' for Inactive)
REMARK    1  A    between atoms: C_1  and  C_2 
REMARK    2  A    between atoms: C_5  and  N_6 
ROOT
HETATM    1  C   UNL     1      63.085   8.679   4.181  1.00  0.00    -0.051 A 
HETATM    2  C   UNL     1      62.783   8.550   2.816  1.00  0.00     0.010 A 
HETATM    3  C   UNL     1      62.781   9.912   4.787  1.00  0.00     0.010 A 
HETATM    4  C   UNL     1      61.973  10.842   2.693  1.00  0.00     0.025 A 
HETATM    5  C   UNL     1      62.215  10.966   4.059  1.00  0.00     0.029 A 
HETATM    6  C   UNL     1      62.216   9.608   2.092  1.00  0.00     0.029 A 
ENDROOT
BRANCH   1   7
HETATM    7  C   UNL     1      63.696   7.535   5.009  1.00  0.00    -0.024 C 
HETATM    8  C   UNL     1      63.755   6.186   4.258  1.00  0.00     0.019 C 
HETATM    9  C   UNL     1      62.857   7.310   6.286  1.00  0.00     0.019 C 
HETATM   10  C   UNL     1      65.141   7.898   5.411  1.00  0.00     0.019 C 
ENDBRANCH   1   7
BRANCH   4  11
HETATM   11  N   UNL     1      61.287  11.844   1.998  1.00  0.00    -0.399 N 
HETATM   12  H   UNL     1      61.772  12.636   1.670  1.00  0.00     0.156 HD
HETATM   13  H   UNL     1      60.319  11.757   1.836  1.00  0.00     0.156 HD
ENDBRANCH   4  11
TORSDOF 2
ENDMDL
MODEL 6
REMARK VINA RESULT:      -4.3      1.696      2.798
REMARK  2 active torsions:
REMARK  status: ('A' for Active; 'I' for Inactive)
REMARK    1  A    between atoms: C_1  and  C_2 
REMARK    2  A    between atoms: C_5  and  N_6 
ROOT
HETATM    1  C   UNL     1      62.847   8.505   3.027  1.00  0.00    -0.051 A 
HETATM    2  C   UNL     1      62.943   9.399   4.105  1.00  0.00     0.010 A 
HETATM    3  C   UNL     1      63.628   7.338   3.096  1.00  0.00     0.010 A 
HETATM    4  C   UNL     1      64.599   8.007   5.220  1.00  0.00     0.025 A 
HETATM    5  C   UNL     1      64.472   7.084   4.185  1.00  0.00     0.029 A 
HETATM    6  C   UNL     1      63.788   9.141   5.192  1.00  0.00     0.029 A 
ENDROOT
BRANCH   1   7
HETATM    7  C   UNL     1      61.919   8.750   1.823  1.00  0.00    -0.024 C 
HETATM    8  C   UNL     1      62.433   8.127   0.506  1.00  0.00     0.019 C 
HETATM    9  C   UNL     1      61.768  10.268   1.582  1.00  0.00     0.019 C 
HETATM   10  C   UNL     1      60.530   8.142   2.105  1.00  0.00     0.019 C 
ENDBRANCH   1   7
BRANCH   4  11
HETATM   11  N   UNL     1      65.337   7.693   6.366  1.00  0.00    -0.399 N 
HETATM   12  H   UNL     1      64.905   7.713   7.251  1.00  0.00     0.156 HD
HETATM   13  H   UNL     1      66.288   7.450   6.289  1.00  0.00     0.156 HD
ENDBRANCH   4  11
TORSDOF 2
ENDMDL
MODEL 7
REMARK VINA RESULT:      -4.0      2.701      4.316
REMARK  2 active torsions:
REMARK  status: ('A' for Active; 'I' for Inactive)
REMARK    1  A    between atoms: C_1  and  C_2 
REMARK    2  A    between atoms: C_5  and  N_6 
ROOT
HETATM    1  C   UNL     1      64.695   7.841   4.669  1.00  0.00    -0.051 A 
HETATM    2  C   UNL     1      63.949   7.388   3.569  1.00  0.00     0.010 A 
HETATM    3  C   UNL     1      64.252   9.018   5.298  1.00  0.00     0.010 A 
HETATM    4  C   UNL     1      62.429   9.284   3.714  1.00  0.00     0.025 A 
HETATM    5  C   UNL     1      63.126   9.715   4.841  1.00  0.00     0.029 A 
HETATM    6  C   UNL     1      62.822   8.088   3.116  1.00  0.00     0.029 A 
ENDROOT
BRANCH   1   7
HETATM    7  C   UNL     1      65.929   7.091   5.202  1.00  0.00    -0.024 C 
HETATM    8  C   UNL     1      65.583   5.838   6.037  1.00  0.00     0.019 C 
HETATM    9  C   UNL     1      66.758   8.028   6.107  1.00  0.00     0.019 C 
HETATM   10  C   UNL     1      66.804   6.625   4.020  1.00  0.00     0.019 C 
ENDBRANCH   1   7
BRANCH   4  11
HETATM   11  N   UNL     1      61.231   9.902   3.340  1.00  0.00    -0.399 N 
HETATM   12  H   UNL     1      60.996  10.784   3.709  1.00  0.00     0.156 HD
HETATM   13  H   UNL     1      60.623   9.456   2.707  1.00  0.00     0.156 HD
ENDBRANCH   4  11
TORSDOF 2
ENDMDL
MODEL 8
REMARK VINA RESULT:      -4.0      2.232      3.061
REMARK  2 active torsions:
REMARK  status: ('A' for Active; 'I' for Inactive)
REMARK    1  A    between atoms: C_1  and  C_2 
REMARK    2  A    between atoms: C_5  and  N_6 
ROOT
HETATM    1  C   UNL     1      62.911   8.254   4.394  1.00  0.00    -0.051 A 
HETATM    2  C   UNL     1      64.246   8.671   4.517  1.00  0.00     0.010 A 
HETATM    3  C   UNL     1      62.447   7.319   5.335  1.00  0.00     0.010 A 
HETATM    4  C   UNL     1      64.618   7.199   6.419  1.00  0.00     0.025 A 
HETATM    5  C   UNL     1      63.280   6.818   6.343  1.00  0.00     0.029 A 
HETATM    6  C   UNL     1      65.076   8.168   5.528  1.00  0.00     0.029 A 
ENDROOT
BRANCH   1   7
HETATM    7  C   UNL     1      61.968   8.796   3.305  1.00  0.00    -0.024 C 
HETATM    8  C   UNL     1      60.531   8.233   3.391  1.00  0.00     0.019 C 
HETATM    9  C   UNL     1      62.518   8.430   1.909  1.00  0.00     0.019 C 
HETATM   10  C   UNL     1      61.866  10.331   3.423  1.00  0.00     0.019 C 
ENDBRANCH   1   7
BRANCH   4  11
HETATM   11  N   UNL     1      65.411   6.802   7.501  1.00  0.00    -0.399 N 
HETATM   12  H   UNL     1      65.500   5.847   7.722  1.00  0.00     0.156 HD
HETATM   13  H   UNL     1      65.880   7.478   8.043  1.00  0.00     0.156 HD
ENDBRANCH   4  11
TORSDOF 2
ENDMDL
MODEL 9
REMARK VINA RESULT:      -4.0      1.407      2.440
REMARK  2 active torsions:
REMARK  status: ('A' for Active; 'I' for Inactive)
REMARK    1  A    between atoms: C_1  and  C_2 
REMARK    2  A    between atoms: C_5  and  N_6 
ROOT
HETATM    1  C   UNL     1      62.972   8.139   3.408  1.00  0.00    -0.051 A 
HETATM    2  C   UNL     1      63.356   8.630   4.666  1.00  0.00     0.010 A 
HETATM    3  C   UNL     1      62.276   9.023   2.565  1.00  0.00     0.010 A 
HETATM    4  C   UNL     1      62.308  10.784   4.239  1.00  0.00     0.025 A 
HETATM    5  C   UNL     1      61.969  10.330   2.966  1.00  0.00     0.029 A 
HETATM    6  C   UNL     1      63.047   9.938   5.063  1.00  0.00     0.029 A 
ENDROOT
BRANCH   1   7
HETATM    7  C   UNL     1      63.305   6.713   2.935  1.00  0.00    -0.024 C 
HETATM    8  C   UNL     1      64.761   6.286   3.225  1.00  0.00     0.019 C 
HETATM    9  C   UNL     1      63.093   6.607   1.409  1.00  0.00     0.019 C 
HETATM   10  C   UNL     1      62.382   5.700   3.646  1.00  0.00     0.019 C 
ENDBRANCH   1   7
BRANCH   4  11
HETATM   11  N   UNL     1      62.120  12.126   4.588  1.00  0.00    -0.399 N 
HETATM   12  H   UNL     1      62.188  12.828   3.900  1.00  0.00     0.156 HD
HETATM   13  H   UNL     1      61.920  12.369   5.521  1.00  0.00     0.156 HD
ENDBRANCH   4  11
TORSDOF 2
ENDMDL
