MODEL 1
REMARK VINA RESULT:      -4.7      0.000      0.000
REMARK  0 active torsions:
REMARK  status: ('A' for Active; 'I' for Inactive)
ROOT
HETATM    1  N   UNL     1      63.162  11.325   6.488  1.00  0.00    -0.191 NA
HETATM    2  C   UNL     1      62.901  10.903   5.439  1.00  0.00     0.099 C 
HETATM    3  C   UNL     1      62.586  10.385   4.139  1.00  0.00     0.044 A 
HETATM    4  C   UNL     1      62.026   9.393   1.599  1.00  0.00     0.116 A 
HETATM    5  F   UNL     1      61.767   8.921   0.374  1.00  0.00    -0.206 F 
HETATM    6  C   UNL     1      61.978  11.208   3.182  1.00  0.00     0.026 A 
HETATM    7  C   UNL     1      62.901   9.058   3.818  1.00  0.00     0.026 A 
HETATM    8  C   UNL     1      61.699  10.710   1.908  1.00  0.00     0.044 A 
HETATM    9  C   UNL     1      62.618   8.562   2.542  1.00  0.00     0.044 A 
ENDROOT
TORSDOF 0
ENDMDL
MODEL 2
REMARK VINA RESULT:      -4.7      1.861      2.527
REMARK  0 active torsions:
REMARK  status: ('A' for Active; 'I' for Inactive)
ROOT
HETATM    1  N   UNL     1      63.498   7.793   6.248  1.00  0.00    -0.191 NA
HETATM    2  C   UNL     1      63.150   8.549   5.439  1.00  0.00     0.099 C 
HETATM    3  C   UNL     1      62.711   9.481   4.442  1.00  0.00     0.044 A 
HETATM    4  C   UNL     1      61.808  11.278   2.517  1.00  0.00     0.116 A 
HETATM    5  F   UNL     1      61.362  12.138   1.594  1.00  0.00    -0.206 F 
HETATM    6  C   UNL     1      62.525   9.059   3.118  1.00  0.00     0.026 A 
HETATM    7  C   UNL     1      62.453  10.813   4.791  1.00  0.00     0.026 A 
HETATM    8  C   UNL     1      62.070   9.961   2.154  1.00  0.00     0.044 A 
HETATM    9  C   UNL     1      62.000  11.714   3.823  1.00  0.00     0.044 A 
ENDROOT
TORSDOF 0
ENDMDL
MODEL 3
REMARK VINA RESULT:      -4.6      1.861      2.250
REMARK  0 active torsions:
REMARK  status: ('A' for Active; 'I' for Inactive)
ROOT
HETATM    1  N   UNL     1      63.266   7.700   6.504  1.00  0.00    -0.191 NA
HETATM    2  C   UNL     1      62.950   8.430   5.659  1.00  0.00     0.099 C 
HETATM    3  C   UNL     1      62.567   9.333   4.612  1.00  0.00     0.044 A 
HETATM    4  C   UNL     1      61.879  11.094   2.569  1.00  0.00     0.116 A 
HETATM    5  F   UNL     1      61.560  11.943   1.586  1.00  0.00    -0.206 F 
HETATM    6  C   UNL     1      62.401  10.697   4.887  1.00  0.00     0.026 A 
HETATM    7  C   UNL     1      62.375   8.856   3.309  1.00  0.00     0.026 A 
HETATM    8  C   UNL     1      62.058  11.579   3.861  1.00  0.00     0.044 A 
HETATM    9  C   UNL     1      62.029   9.741   2.285  1.00  0.00     0.044 A 
ENDROOT
TORSDOF 0
ENDMDL
MODEL 4
REMARK VINA RESULT:      -4.3      3.204      3.935
REMARK  0 active torsions:
REMARK  status: ('A' for Active; 'I' for Inactive)
ROOT
HETATM    1  N   UNL     1      62.028   7.126   0.299  1.00  0.00    -0.191 NA
HETATM    2  C   UNL     1      62.075   7.984   1.079  1.00  0.00     0.099 C 
HETATM    3  C   UNL     1      62.124   9.041   2.046  1.00  0.00     0.044 A 
HETATM    4  C   UNL     1      62.166  11.085   3.937  1.00  0.00     0.116 A 
HETATM    5  F   UNL     1      62.174  12.066   4.846  1.00  0.00    -0.206 F 
HETATM    6  C   UNL     1      61.797  10.352   1.672  1.00  0.00     0.026 A 
HETATM    7  C   UNL     1      62.483   8.765   3.372  1.00  0.00     0.026 A 
HETATM    8  C   UNL     1      61.817  11.376   2.621  1.00  0.00     0.044 A 
HETATM    9  C   UNL     1      62.504   9.792   4.319  1.00  0.00     0.044 A 
ENDROOT
TORSDOF 0
ENDMDL
MODEL 5
REMARK VINA RESULT:      -4.3      2.437      3.122
REMARK  0 active torsions:
REMARK  status: ('A' for Active; 'I' for Inactive)
ROOT
HETATM    1  N   UNL     1      63.254   6.058   3.985  1.00  0.00    -0.191 NA
HETATM    2  C   UNL     1      62.938   7.112   3.618  1.00  0.00     0.099 C 
HETATM    3  C   UNL     1      62.556   8.417   3.163  1.00  0.00     0.044 A 
HETATM    4  C   UNL     1      61.868  10.964   2.274  1.00  0.00     0.116 A 
HETATM    5  F   UNL     1      61.549  12.190   1.846  1.00  0.00    -0.206 F 
HETATM    6  C   UNL     1      62.409   9.466   4.081  1.00  0.00     0.026 A 
HETATM    7  C   UNL     1      62.344   8.651   1.798  1.00  0.00     0.026 A 
HETATM    8  C   UNL     1      62.065  10.743   3.633  1.00  0.00     0.044 A 
HETATM    9  C   UNL     1      61.998   9.930   1.354  1.00  0.00     0.044 A 
ENDROOT
TORSDOF 0
ENDMDL
MODEL 6
REMARK VINA RESULT:      -3.9      2.695      3.460
REMARK  0 active torsions:
REMARK  status: ('A' for Active; 'I' for Inactive)
ROOT
HETATM    1  N   UNL     1      61.554   5.538   3.677  1.00  0.00    -0.191 NA
HETATM    2  C   UNL     1      61.657   6.643   3.342  1.00  0.00     0.099 C 
HETATM    3  C   UNL     1      61.776   8.011   2.926  1.00  0.00     0.044 A 
HETATM    4  C   UNL     1      61.950  10.667   2.112  1.00  0.00     0.116 A 
HETATM    5  F   UNL     1      62.022  11.944   1.718  1.00  0.00    -0.206 F 
HETATM    6  C   UNL     1      61.961   8.320   1.571  1.00  0.00     0.026 A 
HETATM    7  C   UNL     1      61.689   9.042   3.870  1.00  0.00     0.026 A 
HETATM    8  C   UNL     1      62.047   9.653   1.165  1.00  0.00     0.044 A 
HETATM    9  C   UNL     1      61.778  10.375   3.460  1.00  0.00     0.044 A 
ENDROOT
TORSDOF 0
ENDMDL
MODEL 7
REMARK VINA RESULT:      -3.8      1.046      1.949
REMARK  0 active torsions:
REMARK  status: ('A' for Active; 'I' for Inactive)
ROOT
HETATM    1  N   UNL     1      63.163  10.641   5.857  1.00  0.00    -0.191 NA
HETATM    2  C   UNL     1      62.800  10.145   4.873  1.00  0.00     0.099 C 
HETATM    3  C   UNL     1      62.343   9.533   3.659  1.00  0.00     0.044 A 
HETATM    4  C   UNL     1      61.403   8.349   1.321  1.00  0.00     0.116 A 
HETATM    5  F   UNL     1      60.941   7.779   0.203  1.00  0.00    -0.206 F 
HETATM    6  C   UNL     1      62.235   8.139   3.572  1.00  0.00     0.026 A 
HETATM    7  C   UNL     1      61.987  10.329   2.562  1.00  0.00     0.026 A 
HETATM    8  C   UNL     1      61.763   7.546   2.399  1.00  0.00     0.044 A 
HETATM    9  C   UNL     1      61.517   9.732   1.389  1.00  0.00     0.044 A 
ENDROOT
TORSDOF 0
ENDMDL
MODEL 8
REMARK VINA RESULT:      -3.5      3.295      4.056
REMARK  0 active torsions:
REMARK  status: ('A' for Active; 'I' for Inactive)
ROOT
HETATM    1  N   UNL     1      62.260   6.113   1.700  1.00  0.00    -0.191 NA
HETATM    2  C   UNL     1      62.403   7.039   2.383  1.00  0.00     0.099 C 
HETATM    3  C   UNL     1      62.573   8.181   3.234  1.00  0.00     0.044 A 
HETATM    4  C   UNL     1      62.871  10.373   4.924  1.00  0.00     0.116 A 
HETATM    5  F   UNL     1      63.005  11.422   5.743  1.00  0.00    -0.206 F 
HETATM    6  C   UNL     1      61.709   9.278   3.120  1.00  0.00     0.026 A 
HETATM    7  C   UNL     1      63.595   8.195   4.193  1.00  0.00     0.026 A 
HETATM    8  C   UNL     1      61.859  10.376   3.969  1.00  0.00     0.044 A 
HETATM    9  C   UNL     1      63.743   9.297   5.040  1.00  0.00     0.044 A 
ENDROOT
TORSDOF 0
ENDMDL
MODEL 9
REMARK VINA RESULT:      -3.2     12.800     13.535
REMARK  0 active torsions:
REMARK  status: ('A' for Active; 'I' for Inactive)
ROOT
HETATM    1  N   UNL     1      58.736   4.229   9.859  1.00  0.00    -0.191 NA
HETATM    2  C   UNL     1      58.373   3.506  10.691  1.00  0.00     0.099 C 
HETATM    3  C   UNL     1      57.923   2.619  11.724  1.00  0.00     0.044 A 
HETATM    4  C   UNL     1      57.043   0.942  13.764  1.00  0.00     0.116 A 
HETATM    5  F   UNL     1      56.620   0.145  14.752  1.00  0.00    -0.206 F 
HETATM    6  C   UNL     1      58.846   2.042  12.606  1.00  0.00     0.026 A 
HETATM    7  C   UNL     1      56.557   2.341  11.864  1.00  0.00     0.026 A 
HETATM    8  C   UNL     1      58.403   1.201  13.630  1.00  0.00     0.044 A 
HETATM    9  C   UNL     1      56.117   1.498  12.889  1.00  0.00     0.044 A 
ENDROOT
TORSDOF 0
ENDMDL
