MODEL 1
REMARK VINA RESULT:      -4.9      0.000      0.000
REMARK  0 active torsions:
REMARK  status: ('A' for Active; 'I' for Inactive)
ROOT
HETATM    1  C   UNL     1      62.782   8.846   3.675  1.00  0.00    -0.028 A 
HETATM    2  O   UNL     1      62.825   9.677   5.992  1.00  0.00    -0.386 OA
HETATM    3  C   UNL     1      62.221  10.068   3.266  1.00  0.00    -0.048 A 
HETATM    4  C   UNL     1      63.296   8.671   5.085  1.00  0.00     0.206 C 
HETATM    5  C   UNL     1      63.010  10.986   5.450  1.00  0.00     0.172 C 
HETATM    6  C   UNL     1      62.075  11.189   4.261  1.00  0.00     0.065 C 
HETATM    7  C   UNL     1      62.907   7.802   2.748  1.00  0.00     0.010 A 
HETATM    8  C   UNL     1      61.748  10.214   1.955  1.00  0.00     0.008 A 
HETATM    9  C   UNL     1      62.450   7.961   1.439  1.00  0.00     0.001 A 
HETATM   10  C   UNL     1      61.865   9.163   1.046  1.00  0.00     0.001 A 
ENDROOT
TORSDOF 0
ENDMDL
MODEL 2
REMARK VINA RESULT:      -4.7      0.894      2.369
REMARK  0 active torsions:
REMARK  status: ('A' for Active; 'I' for Inactive)
ROOT
HETATM    1  C   UNL     1      62.590   9.853   3.920  1.00  0.00    -0.028 A 
HETATM    2  O   UNL     1      63.758   9.030   5.924  1.00  0.00    -0.386 OA
HETATM    3  C   UNL     1      62.829   8.618   3.294  1.00  0.00    -0.048 A 
HETATM    4  C   UNL     1      62.899  10.044   5.387  1.00  0.00     0.206 C 
HETATM    5  C   UNL     1      63.292   7.724   5.579  1.00  0.00     0.172 C 
HETATM    6  C   UNL     1      63.457   7.496   4.080  1.00  0.00     0.065 C 
HETATM    7  C   UNL     1      62.014  10.898   3.183  1.00  0.00     0.010 A 
HETATM    8  C   UNL     1      62.538   8.458   1.933  1.00  0.00     0.008 A 
HETATM    9  C   UNL     1      61.710  10.724   1.832  1.00  0.00     0.001 A 
HETATM   10  C   UNL     1      61.978   9.509   1.207  1.00  0.00     0.001 A 
ENDROOT
TORSDOF 0
ENDMDL
MODEL 3
REMARK VINA RESULT:      -4.7      1.860      3.519
REMARK  0 active torsions:
REMARK  status: ('A' for Active; 'I' for Inactive)
ROOT
HETATM    1  C   UNL     1      62.606   8.825   3.039  1.00  0.00    -0.028 A 
HETATM    2  O   UNL     1      63.246   6.859   1.704  1.00  0.00    -0.386 OA
HETATM    3  C   UNL     1      62.189   9.468   1.861  1.00  0.00    -0.048 A 
HETATM    4  C   UNL     1      62.994   7.365   3.021  1.00  0.00     0.206 C 
HETATM    5  C   UNL     1      62.187   7.204   0.808  1.00  0.00     0.172 C 
HETATM    6  C   UNL     1      62.191   8.709   0.560  1.00  0.00     0.065 C 
HETATM    7  C   UNL     1      62.612   9.538   4.247  1.00  0.00     0.010 A 
HETATM    8  C   UNL     1      61.833  10.822   1.895  1.00  0.00     0.008 A 
HETATM    9  C   UNL     1      62.238  10.882   4.275  1.00  0.00     0.001 A 
HETATM   10  C   UNL     1      61.856  11.525   3.099  1.00  0.00     0.001 A 
ENDROOT
TORSDOF 0
ENDMDL
MODEL 4
REMARK VINA RESULT:      -4.7      1.376      2.613
REMARK  0 active torsions:
REMARK  status: ('A' for Active; 'I' for Inactive)
ROOT
HETATM    1  C   UNL     1      62.831   9.302   3.871  1.00  0.00    -0.028 A 
HETATM    2  O   UNL     1      61.497  11.365   3.722  1.00  0.00    -0.386 OA
HETATM    3  C   UNL     1      62.475   8.997   2.546  1.00  0.00    -0.048 A 
HETATM    4  C   UNL     1      62.489  10.648   4.468  1.00  0.00     0.206 C 
HETATM    5  C   UNL     1      61.822  11.397   2.331  1.00  0.00     0.172 C 
HETATM    6  C   UNL     1      61.691   9.998   1.738  1.00  0.00     0.065 C 
HETATM    7  C   UNL     1      63.552   8.364   4.623  1.00  0.00     0.010 A 
HETATM    8  C   UNL     1      62.799   7.744   2.009  1.00  0.00     0.008 A 
HETATM    9  C   UNL     1      63.887   7.126   4.074  1.00  0.00     0.001 A 
HETATM   10  C   UNL     1      63.504   6.814   2.771  1.00  0.00     0.001 A 
ENDROOT
TORSDOF 0
ENDMDL
MODEL 5
REMARK VINA RESULT:      -4.5      1.462      2.736
REMARK  0 active torsions:
REMARK  status: ('A' for Active; 'I' for Inactive)
ROOT
HETATM    1  C   UNL     1      62.570   8.791   2.859  1.00  0.00    -0.028 A 
HETATM    2  O   UNL     1      63.042   6.636   3.950  1.00  0.00    -0.386 OA
HETATM    3  C   UNL     1      62.634   9.420   4.114  1.00  0.00    -0.048 A 
HETATM    4  C   UNL     1      62.972   7.342   2.705  1.00  0.00     0.206 C 
HETATM    5  C   UNL     1      63.805   7.364   4.914  1.00  0.00     0.172 C 
HETATM    6  C   UNL     1      63.048   8.624   5.325  1.00  0.00     0.065 C 
HETATM    7  C   UNL     1      62.175   9.533   1.737  1.00  0.00     0.010 A 
HETATM    8  C   UNL     1      62.257  10.763   4.241  1.00  0.00     0.008 A 
HETATM    9  C   UNL     1      61.818  10.875   1.869  1.00  0.00     0.001 A 
HETATM   10  C   UNL     1      61.853  11.487   3.120  1.00  0.00     0.001 A 
ENDROOT
TORSDOF 0
ENDMDL
MODEL 6
REMARK VINA RESULT:      -4.3      1.443      3.192
REMARK  0 active torsions:
REMARK  status: ('A' for Active; 'I' for Inactive)
ROOT
HETATM    1  C   UNL     1      63.351   9.067   4.661  1.00  0.00    -0.028 A 
HETATM    2  O   UNL     1      64.608   6.956   4.518  1.00  0.00    -0.386 OA
HETATM    3  C   UNL     1      62.846   8.833   3.370  1.00  0.00    -0.048 A 
HETATM    4  C   UNL     1      64.138   7.997   5.383  1.00  0.00     0.206 C 
HETATM    5  C   UNL     1      63.556   6.460   3.688  1.00  0.00     0.172 C 
HETATM    6  C   UNL     1      63.148   7.529   2.679  1.00  0.00     0.065 C 
HETATM    7  C   UNL     1      63.076  10.285   5.297  1.00  0.00     0.010 A 
HETATM    8  C   UNL     1      62.119   9.835   2.715  1.00  0.00     0.008 A 
HETATM    9  C   UNL     1      62.335  11.271   4.644  1.00  0.00     0.001 A 
HETATM   10  C   UNL     1      61.864  11.049   3.352  1.00  0.00     0.001 A 
ENDROOT
TORSDOF 0
ENDMDL
MODEL 7
REMARK VINA RESULT:      -3.9      5.300      6.954
REMARK  0 active torsions:
REMARK  status: ('A' for Active; 'I' for Inactive)
ROOT
HETATM    1  C   UNL     1      66.900   6.875   7.208  1.00  0.00    -0.028 A 
HETATM    2  O   UNL     1      67.887   5.939   9.260  1.00  0.00    -0.386 OA
HETATM    3  C   UNL     1      67.404   5.779   6.487  1.00  0.00    -0.048 A 
HETATM    4  C   UNL     1      66.970   6.898   8.718  1.00  0.00     0.206 C 
HETATM    5  C   UNL     1      67.672   4.644   8.695  1.00  0.00     0.172 C 
HETATM    6  C   UNL     1      68.075   4.649   7.224  1.00  0.00     0.065 C 
HETATM    7  C   UNL     1      66.284   7.929   6.518  1.00  0.00     0.010 A 
HETATM    8  C   UNL     1      67.331   5.773   5.088  1.00  0.00     0.008 A 
HETATM    9  C   UNL     1      66.200   7.906   5.126  1.00  0.00     0.001 A 
HETATM   10  C   UNL     1      66.729   6.833   4.412  1.00  0.00     0.001 A 
ENDROOT
TORSDOF 0
ENDMDL
MODEL 8
REMARK VINA RESULT:      -3.9      2.171      3.769
REMARK  0 active torsions:
REMARK  status: ('A' for Active; 'I' for Inactive)
ROOT
HETATM    1  C   UNL     1      63.076   7.787   2.801  1.00  0.00    -0.028 A 
HETATM    2  O   UNL     1      62.814   7.081   0.457  1.00  0.00    -0.386 OA
HETATM    3  C   UNL     1      62.309   8.931   2.524  1.00  0.00    -0.048 A 
HETATM    4  C   UNL     1      63.205   6.682   1.777  1.00  0.00     0.206 C 
HETATM    5  C   UNL     1      61.542   7.733   0.471  1.00  0.00     0.172 C 
HETATM    6  C   UNL     1      61.662   9.083   1.171  1.00  0.00     0.065 C 
HETATM    7  C   UNL     1      63.684   7.654   4.057  1.00  0.00     0.010 A 
HETATM    8  C   UNL     1      62.200   9.947   3.483  1.00  0.00     0.008 A 
HETATM    9  C   UNL     1      63.556   8.662   5.013  1.00  0.00     0.001 A 
HETATM   10  C   UNL     1      62.821   9.809   4.724  1.00  0.00     0.001 A 
ENDROOT
TORSDOF 0
ENDMDL
MODEL 9
REMARK VINA RESULT:      -3.8      3.374      4.747
REMARK  0 active torsions:
REMARK  status: ('A' for Active; 'I' for Inactive)
ROOT
HETATM    1  C   UNL     1      65.601   7.858   5.033  1.00  0.00    -0.028 A 
HETATM    2  O   UNL     1      67.908   7.236   5.627  1.00  0.00    -0.386 OA
HETATM    3  C   UNL     1      65.569   6.794   4.115  1.00  0.00    -0.048 A 
HETATM    4  C   UNL     1      66.757   8.008   5.995  1.00  0.00     0.206 C 
HETATM    5  C   UNL     1      67.549   5.884   5.335  1.00  0.00     0.172 C 
HETATM    6  C   UNL     1      66.729   5.834   4.050  1.00  0.00     0.065 C 
HETATM    7  C   UNL     1      64.525   8.755   5.084  1.00  0.00     0.010 A 
HETATM    8  C   UNL     1      64.491   6.670   3.230  1.00  0.00     0.008 A 
HETATM    9  C   UNL     1      63.446   8.613   4.210  1.00  0.00     0.001 A 
HETATM   10  C   UNL     1      63.433   7.576   3.280  1.00  0.00     0.001 A 
ENDROOT
TORSDOF 0
ENDMDL
