MODEL 1
REMARK VINA RESULT:      -4.7      0.000      0.000
REMARK  3 active torsions:
REMARK  status: ('A' for Active; 'I' for Inactive)
REMARK    1  A    between atoms: C_1  and  O_8 
REMARK    2  A    between atoms: C_3  and  N_6 
REMARK    3  A    between atoms: C_5  and  O_9 
ROOT
HETATM    1  C   UNL     1      63.606   9.321   5.160  1.00  0.00     0.097 A 
HETATM    2  C   UNL     1      63.137   8.598   4.043  1.00  0.00     0.075 A 
HETATM    3  C   UNL     1      63.144  10.634   5.379  1.00  0.00     0.059 A 
HETATM    4  C   UNL     1      62.287  11.196   4.414  1.00  0.00     0.035 A 
HETATM    5  C   UNL     1      62.249   9.154   3.126  1.00  0.00     0.070 A 
HETATM    6  C   UNL     1      61.827  10.463   3.319  1.00  0.00     0.039 A 
ENDROOT
BRANCH   3   7
HETATM    7  N   UNL     1      63.622  11.512   6.371  1.00  0.00    -0.397 N 
HETATM    8  H   UNL     1      63.404  12.470   6.325  1.00  0.00     0.156 HD
HETATM    9  H   UNL     1      64.172  11.166   7.111  1.00  0.00     0.156 HD
ENDBRANCH   3   7
BRANCH   1  10
HETATM   10  O   UNL     1      64.493   8.568   5.883  1.00  0.00    -0.354 OA
HETATM   11  C   UNL     1      65.684   8.085   5.298  1.00  0.00     0.210 C 
ENDBRANCH   1  10
BRANCH   5  12
HETATM   12  O   UNL     1      61.743   8.543   2.014  1.00  0.00    -0.356 OA
HETATM   13  C   UNL     1      62.191   9.027   0.755  1.00  0.00     0.210 C 
ENDBRANCH   5  12
TORSDOF 3
ENDMDL
MODEL 2
REMARK VINA RESULT:      -4.4      1.972      3.085
REMARK  3 active torsions:
REMARK  status: ('A' for Active; 'I' for Inactive)
REMARK    1  A    between atoms: C_1  and  O_8 
REMARK    2  A    between atoms: C_3  and  N_6 
REMARK    3  A    between atoms: C_5  and  O_9 
ROOT
HETATM    1  C   UNL     1      62.209  10.571   4.020  1.00  0.00     0.097 A 
HETATM    2  C   UNL     1      61.645   9.505   3.287  1.00  0.00     0.075 A 
HETATM    3  C   UNL     1      62.972  10.294   5.172  1.00  0.00     0.059 A 
HETATM    4  C   UNL     1      63.068   8.951   5.585  1.00  0.00     0.035 A 
HETATM    5  C   UNL     1      61.793   8.180   3.685  1.00  0.00     0.070 A 
HETATM    6  C   UNL     1      62.509   7.909   4.843  1.00  0.00     0.039 A 
ENDROOT
BRANCH   3   7
HETATM    7  N   UNL     1      63.481  11.256   6.065  1.00  0.00    -0.397 N 
HETATM    8  H   UNL     1      64.236  11.029   6.653  1.00  0.00     0.156 HD
HETATM    9  H   UNL     1      63.082  12.155   6.099  1.00  0.00     0.156 HD
ENDBRANCH   3   7
BRANCH   1  10
HETATM   10  O   UNL     1      61.890  11.773   3.444  1.00  0.00    -0.354 OA
HETATM   11  C   UNL     1      61.728  11.889   2.046  1.00  0.00     0.210 C 
ENDBRANCH   1  10
BRANCH   5  12
HETATM   12  O   UNL     1      61.284   7.082   3.053  1.00  0.00    -0.356 OA
HETATM   13  C   UNL     1      59.998   7.219   2.462  1.00  0.00     0.210 C 
ENDBRANCH   5  12
TORSDOF 3
ENDMDL
MODEL 3
REMARK VINA RESULT:      -4.3      2.282      4.315
REMARK  3 active torsions:
REMARK  status: ('A' for Active; 'I' for Inactive)
REMARK    1  A    between atoms: C_1  and  O_8 
REMARK    2  A    between atoms: C_3  and  N_6 
REMARK    3  A    between atoms: C_5  and  O_9 
ROOT
HETATM    1  C   UNL     1      61.995  10.086   3.912  1.00  0.00     0.097 A 
HETATM    2  C   UNL     1      63.196  10.222   4.641  1.00  0.00     0.075 A 
HETATM    3  C   UNL     1      61.451   8.803   3.705  1.00  0.00     0.059 A 
HETATM    4  C   UNL     1      62.186   7.698   4.172  1.00  0.00     0.035 A 
HETATM    5  C   UNL     1      63.882   9.118   5.139  1.00  0.00     0.070 A 
HETATM    6  C   UNL     1      63.369   7.851   4.898  1.00  0.00     0.039 A 
ENDROOT
BRANCH   3   7
HETATM    7  N   UNL     1      60.339   8.510   2.893  1.00  0.00    -0.397 N 
HETATM    8  H   UNL     1      60.164   7.583   2.615  1.00  0.00     0.156 HD
HETATM    9  H   UNL     1      59.736   9.233   2.604  1.00  0.00     0.156 HD
ENDBRANCH   3   7
BRANCH   1  10
HETATM   10  O   UNL     1      61.539  11.312   3.504  1.00  0.00    -0.354 OA
HETATM   11  C   UNL     1      61.765  11.771   2.186  1.00  0.00     0.210 C 
ENDBRANCH   1  10
BRANCH   5  12
HETATM   12  O   UNL     1      65.050   9.141   5.848  1.00  0.00    -0.356 OA
HETATM   13  C   UNL     1      65.952   8.064   5.635  1.00  0.00     0.210 C 
ENDBRANCH   5  12
TORSDOF 3
ENDMDL
MODEL 4
REMARK VINA RESULT:      -4.3      2.314      3.241
REMARK  3 active torsions:
REMARK  status: ('A' for Active; 'I' for Inactive)
REMARK    1  A    between atoms: C_1  and  O_8 
REMARK    2  A    between atoms: C_3  and  N_6 
REMARK    3  A    between atoms: C_5  and  O_9 
ROOT
HETATM    1  C   UNL     1      62.148  10.572   3.645  1.00  0.00     0.097 A 
HETATM    2  C   UNL     1      62.466   9.247   4.014  1.00  0.00     0.075 A 
HETATM    3  C   UNL     1      61.889  10.873   2.293  1.00  0.00     0.059 A 
HETATM    4  C   UNL     1      62.043   9.837   1.352  1.00  0.00     0.035 A 
HETATM    5  C   UNL     1      62.564   8.226   3.073  1.00  0.00     0.070 A 
HETATM    6  C   UNL     1      62.351   8.530   1.735  1.00  0.00     0.039 A 
ENDROOT
BRANCH   3   7
HETATM    7  N   UNL     1      61.689  12.163   1.769  1.00  0.00    -0.397 N 
HETATM    8  H   UNL     1      62.434  12.806   1.748  1.00  0.00     0.156 HD
HETATM    9  H   UNL     1      60.805  12.422   1.421  1.00  0.00     0.156 HD
ENDBRANCH   3   7
BRANCH   1  10
HETATM   10  O   UNL     1      62.149  11.390   4.744  1.00  0.00    -0.354 OA
HETATM   11  C   UNL     1      63.036  11.162   5.820  1.00  0.00     0.210 C 
ENDBRANCH   1  10
BRANCH   5  12
HETATM   12  O   UNL     1      62.871   6.919   3.324  1.00  0.00    -0.356 OA
HETATM   13  C   UNL     1      64.234   6.541   3.184  1.00  0.00     0.210 C 
ENDBRANCH   5  12
TORSDOF 3
ENDMDL
MODEL 5
REMARK VINA RESULT:      -4.1      1.766      3.873
REMARK  3 active torsions:
REMARK  status: ('A' for Active; 'I' for Inactive)
REMARK    1  A    between atoms: C_1  and  O_8 
REMARK    2  A    between atoms: C_3  and  N_6 
REMARK    3  A    between atoms: C_5  and  O_9 
ROOT
HETATM    1  C   UNL     1      62.385   9.328   2.788  1.00  0.00     0.097 A 
HETATM    2  C   UNL     1      62.981   8.549   3.802  1.00  0.00     0.075 A 
HETATM    3  C   UNL     1      62.064  10.676   3.045  1.00  0.00     0.059 A 
HETATM    4  C   UNL     1      62.284  11.162   4.348  1.00  0.00     0.035 A 
HETATM    5  C   UNL     1      63.236   9.065   5.070  1.00  0.00     0.070 A 
HETATM    6  C   UNL     1      62.881  10.380   5.338  1.00  0.00     0.039 A 
ENDROOT
BRANCH   3   7
HETATM    7  N   UNL     1      61.354  11.526   2.177  1.00  0.00    -0.397 N 
HETATM    8  H   UNL     1      61.089  12.425   2.477  1.00  0.00     0.156 HD
HETATM    9  H   UNL     1      61.124  11.221   1.269  1.00  0.00     0.156 HD
ENDBRANCH   3   7
BRANCH   1  10
HETATM   10  O   UNL     1      62.208   8.583   1.651  1.00  0.00    -0.354 OA
HETATM   11  C   UNL     1      60.947   8.032   1.331  1.00  0.00     0.210 C 
ENDBRANCH   1  10
BRANCH   5  12
HETATM   12  O   UNL     1      63.801   8.395   6.119  1.00  0.00    -0.356 OA
HETATM   13  C   UNL     1      63.436   7.031   6.280  1.00  0.00     0.210 C 
ENDBRANCH   5  12
TORSDOF 3
ENDMDL
MODEL 6
REMARK VINA RESULT:      -3.9      2.075      3.828
REMARK  3 active torsions:
REMARK  status: ('A' for Active; 'I' for Inactive)
REMARK    1  A    between atoms: C_1  and  O_8 
REMARK    2  A    between atoms: C_3  and  N_6 
REMARK    3  A    between atoms: C_5  and  O_9 
ROOT
HETATM    1  C   UNL     1      63.000   8.149   3.118  1.00  0.00     0.097 A 
HETATM    2  C   UNL     1      64.045   8.106   4.065  1.00  0.00     0.075 A 
HETATM    3  C   UNL     1      62.089   9.223   3.138  1.00  0.00     0.059 A 
HETATM    4  C   UNL     1      62.220  10.172   4.169  1.00  0.00     0.035 A 
HETATM    5  C   UNL     1      64.187   9.083   5.047  1.00  0.00     0.070 A 
HETATM    6  C   UNL     1      63.264  10.119   5.094  1.00  0.00     0.039 A 
ENDROOT
BRANCH   3   7
HETATM    7  N   UNL     1      60.932   9.326   2.343  1.00  0.00    -0.397 N 
HETATM    8  H   UNL     1      60.957   9.045   1.400  1.00  0.00     0.156 HD
HETATM    9  H   UNL     1      60.098   9.678   2.730  1.00  0.00     0.156 HD
ENDBRANCH   3   7
BRANCH   1  10
HETATM   10  O   UNL     1      63.059   7.060   2.288  1.00  0.00    -0.354 OA
HETATM   11  C   UNL     1      64.055   6.072   2.454  1.00  0.00     0.210 C 
ENDBRANCH   1  10
BRANCH   5  12
HETATM   12  O   UNL     1      65.155   9.130   6.010  1.00  0.00    -0.356 OA
HETATM   13  C   UNL     1      66.096   8.064   6.027  1.00  0.00     0.210 C 
ENDBRANCH   5  12
TORSDOF 3
ENDMDL
MODEL 7
REMARK VINA RESULT:      -3.7      4.275      7.080
REMARK  3 active torsions:
REMARK  status: ('A' for Active; 'I' for Inactive)
REMARK    1  A    between atoms: C_1  and  O_8 
REMARK    2  A    between atoms: C_3  and  N_6 
REMARK    3  A    between atoms: C_5  and  O_9 
ROOT
HETATM    1  C   UNL     1      65.590   6.451   7.244  1.00  0.00     0.097 A 
HETATM    2  C   UNL     1      65.450   5.088   7.582  1.00  0.00     0.075 A 
HETATM    3  C   UNL     1      66.874   6.975   6.991  1.00  0.00     0.059 A 
HETATM    4  C   UNL     1      67.976   6.118   7.171  1.00  0.00     0.035 A 
HETATM    5  C   UNL     1      66.550   4.244   7.705  1.00  0.00     0.070 A 
HETATM    6  C   UNL     1      67.819   4.770   7.498  1.00  0.00     0.039 A 
ENDROOT
BRANCH   3   7
HETATM    7  N   UNL     1      67.173   8.333   6.774  1.00  0.00    -0.397 N 
HETATM    8  H   UNL     1      67.863   8.585   6.119  1.00  0.00     0.156 HD
HETATM    9  H   UNL     1      66.691   9.030   7.275  1.00  0.00     0.156 HD
ENDBRANCH   3   7
BRANCH   1  10
HETATM   10  O   UNL     1      64.368   7.070   7.222  1.00  0.00    -0.354 OA
HETATM   11  C   UNL     1      63.653   7.226   6.014  1.00  0.00     0.210 C 
ENDBRANCH   1  10
BRANCH   5  12
HETATM   12  O   UNL     1      66.522   2.919   8.032  1.00  0.00    -0.356 OA
HETATM   13  C   UNL     1      67.682   2.387   8.659  1.00  0.00     0.210 C 
ENDBRANCH   5  12
TORSDOF 3
ENDMDL
MODEL 8
REMARK VINA RESULT:      -3.7      2.039      3.276
REMARK  3 active torsions:
REMARK  status: ('A' for Active; 'I' for Inactive)
REMARK    1  A    between atoms: C_1  and  O_8 
REMARK    2  A    between atoms: C_3  and  N_6 
REMARK    3  A    between atoms: C_5  and  O_9 
ROOT
HETATM    1  C   UNL     1      64.392   9.065   5.170  1.00  0.00     0.097 A 
HETATM    2  C   UNL     1      63.497   8.765   4.120  1.00  0.00     0.075 A 
HETATM    3  C   UNL     1      65.438   8.169   5.467  1.00  0.00     0.059 A 
HETATM    4  C   UNL     1      65.490   6.962   4.744  1.00  0.00     0.035 A 
HETATM    5  C   UNL     1      63.597   7.588   3.383  1.00  0.00     0.070 A 
HETATM    6  C   UNL     1      64.601   6.685   3.704  1.00  0.00     0.039 A 
ENDROOT
BRANCH   3   7
HETATM    7  N   UNL     1      66.317   8.276   6.561  1.00  0.00    -0.397 N 
HETATM    8  H   UNL     1      65.961   8.448   7.463  1.00  0.00     0.156 HD
HETATM    9  H   UNL     1      67.286   8.177   6.425  1.00  0.00     0.156 HD
ENDBRANCH   3   7
BRANCH   1  10
HETATM   10  O   UNL     1      64.060  10.257   5.758  1.00  0.00    -0.354 OA
HETATM   11  C   UNL     1      62.862  10.926   5.422  1.00  0.00     0.210 C 
ENDBRANCH   1  10
BRANCH   5  12
HETATM   12  O   UNL     1      62.782   7.203   2.357  1.00  0.00    -0.356 OA
HETATM   13  C   UNL     1      61.715   6.321   2.681  1.00  0.00     0.210 C 
ENDBRANCH   5  12
TORSDOF 3
ENDMDL
MODEL 9
REMARK VINA RESULT:      -3.7      1.871      3.190
REMARK  3 active torsions:
REMARK  status: ('A' for Active; 'I' for Inactive)
REMARK    1  A    between atoms: C_1  and  O_8 
REMARK    2  A    between atoms: C_3  and  N_6 
REMARK    3  A    between atoms: C_5  and  O_9 
ROOT
HETATM    1  C   UNL     1      62.544   9.559   3.730  1.00  0.00     0.097 A 
HETATM    2  C   UNL     1      62.736   8.423   2.913  1.00  0.00     0.075 A 
HETATM    3  C   UNL     1      63.352   9.737   4.870  1.00  0.00     0.059 A 
HETATM    4  C   UNL     1      64.269   8.718   5.188  1.00  0.00     0.035 A 
HETATM    5  C   UNL     1      63.685   7.451   3.218  1.00  0.00     0.070 A 
HETATM    6  C   UNL     1      64.451   7.605   4.365  1.00  0.00     0.039 A 
ENDROOT
BRANCH   3   7
HETATM    7  N   UNL     1      63.185  10.746   5.838  1.00  0.00    -0.397 N 
HETATM    8  H   UNL     1      62.366  11.293   5.842  1.00  0.00     0.156 HD
HETATM    9  H   UNL     1      63.886  10.903   6.511  1.00  0.00     0.156 HD
ENDBRANCH   3   7
BRANCH   1  10
HETATM   10  O   UNL     1      61.533  10.340   3.236  1.00  0.00    -0.354 OA
HETATM   11  C   UNL     1      61.806  11.420   2.366  1.00  0.00     0.210 C 
ENDBRANCH   1  10
BRANCH   5  12
HETATM   12  O   UNL     1      63.943   6.318   2.501  1.00  0.00    -0.356 OA
HETATM   13  C   UNL     1      63.256   6.169   1.265  1.00  0.00     0.210 C 
ENDBRANCH   5  12
TORSDOF 3
ENDMDL
