MODEL 1
REMARK VINA RESULT:      -3.6      0.000      0.000
REMARK  0 active torsions:
REMARK  status: ('A' for Active; 'I' for Inactive)
ROOT
HETATM    1  C   UNL     1      61.932  10.849   3.491  1.00  0.00     0.157 C 
HETATM    2  O   UNL     1      62.263   8.753   2.575  1.00  0.00    -0.378 OA
HETATM    3  C   UNL     1      62.164   9.403   3.860  1.00  0.00     0.186 C 
HETATM    4  O   UNL     1      61.793  11.767   4.289  1.00  0.00    -0.295 OA
HETATM    5  C   UNL     1      61.964  11.025   2.015  1.00  0.00     0.107 C 
HETATM    6  C   UNL     1      61.632   9.607   1.610  1.00  0.00     0.176 C 
HETATM    7  C   UNL     1      63.466   9.213   4.605  1.00  0.00     0.048 C 
ENDROOT
TORSDOF 0
ENDMDL
MODEL 2
REMARK VINA RESULT:      -3.4      0.912      3.214
REMARK  0 active torsions:
REMARK  status: ('A' for Active; 'I' for Inactive)
ROOT
HETATM    1  C   UNL     1      62.602   9.347   3.848  1.00  0.00     0.157 C 
HETATM    2  O   UNL     1      62.155  11.540   4.424  1.00  0.00    -0.378 OA
HETATM    3  C   UNL     1      61.708  10.516   3.509  1.00  0.00     0.186 C 
HETATM    4  O   UNL     1      62.570   8.252   3.301  1.00  0.00    -0.295 OA
HETATM    5  C   UNL     1      63.585   9.725   4.897  1.00  0.00     0.107 C 
HETATM    6  C   UNL     1      62.833  10.887   5.506  1.00  0.00     0.176 C 
HETATM    7  C   UNL     1      61.924  10.999   2.092  1.00  0.00     0.048 C 
ENDROOT
TORSDOF 0
ENDMDL
MODEL 3
REMARK VINA RESULT:      -3.1      5.813      6.897
REMARK  0 active torsions:
REMARK  status: ('A' for Active; 'I' for Inactive)
ROOT
HETATM    1  C   UNL     1      66.635   7.822   6.558  1.00  0.00     0.157 C 
HETATM    2  O   UNL     1      67.907   5.922   6.230  1.00  0.00    -0.378 OA
HETATM    3  C   UNL     1      67.608   7.184   5.596  1.00  0.00     0.186 C 
HETATM    4  O   UNL     1      66.112   8.919   6.408  1.00  0.00    -0.295 OA
HETATM    5  C   UNL     1      66.337   6.905   7.689  1.00  0.00     0.107 C 
HETATM    6  C   UNL     1      67.581   6.048   7.621  1.00  0.00     0.176 C 
HETATM    7  C   UNL     1      66.977   6.916   4.249  1.00  0.00     0.048 C 
ENDROOT
TORSDOF 0
ENDMDL
MODEL 4
REMARK VINA RESULT:      -3.0      5.852      6.951
REMARK  0 active torsions:
REMARK  status: ('A' for Active; 'I' for Inactive)
ROOT
HETATM    1  C   UNL     1      65.777   6.962   7.039  1.00  0.00     0.157 C 
HETATM    2  O   UNL     1      67.957   6.198   7.116  1.00  0.00    -0.378 OA
HETATM    3  C   UNL     1      66.702   6.054   7.815  1.00  0.00     0.186 C 
HETATM    4  O   UNL     1      64.594   7.149   7.294  1.00  0.00    -0.295 OA
HETATM    5  C   UNL     1      66.516   7.660   5.955  1.00  0.00     0.107 C 
HETATM    6  C   UNL     1      67.665   6.690   5.801  1.00  0.00     0.176 C 
HETATM    7  C   UNL     1      66.882   6.518   9.242  1.00  0.00     0.048 C 
ENDROOT
TORSDOF 0
ENDMDL
MODEL 5
REMARK VINA RESULT:      -3.0      1.620      2.858
REMARK  0 active torsions:
REMARK  status: ('A' for Active; 'I' for Inactive)
ROOT
HETATM    1  C   UNL     1      62.868   9.131   3.727  1.00  0.00     0.157 C 
HETATM    2  O   UNL     1      63.172  10.088   5.808  1.00  0.00    -0.378 OA
HETATM    3  C   UNL     1      63.668   8.998   5.002  1.00  0.00     0.186 C 
HETATM    4  O   UNL     1      62.966   8.395   2.753  1.00  0.00    -0.295 OA
HETATM    5  C   UNL     1      61.887  10.242   3.836  1.00  0.00     0.107 C 
HETATM    6  C   UNL     1      62.569  11.042   4.922  1.00  0.00     0.176 C 
HETATM    7  C   UNL     1      63.383   7.695   5.714  1.00  0.00     0.048 C 
ENDROOT
TORSDOF 0
ENDMDL
MODEL 6
REMARK VINA RESULT:      -3.0      1.875      2.680
REMARK  0 active torsions:
REMARK  status: ('A' for Active; 'I' for Inactive)
ROOT
HETATM    1  C   UNL     1      62.837   9.021   5.317  1.00  0.00     0.157 C 
HETATM    2  O   UNL     1      62.385   9.659   3.142  1.00  0.00    -0.378 OA
HETATM    3  C   UNL     1      62.513   8.469   3.949  1.00  0.00     0.186 C 
HETATM    4  O   UNL     1      63.034   8.349   6.321  1.00  0.00    -0.295 OA
HETATM    5  C   UNL     1      62.954  10.502   5.270  1.00  0.00     0.107 C 
HETATM    6  C   UNL     1      62.129  10.757   4.029  1.00  0.00     0.176 C 
HETATM    7  C   UNL     1      63.641   7.625   3.400  1.00  0.00     0.048 C 
ENDROOT
TORSDOF 0
ENDMDL
MODEL 7
REMARK VINA RESULT:      -2.8      4.836      5.713
REMARK  0 active torsions:
REMARK  status: ('A' for Active; 'I' for Inactive)
ROOT
HETATM    1  C   UNL     1      66.558   7.860   5.342  1.00  0.00     0.157 C 
HETATM    2  O   UNL     1      65.062   7.160   6.957  1.00  0.00    -0.378 OA
HETATM    3  C   UNL     1      66.433   7.592   6.823  1.00  0.00     0.186 C 
HETATM    4  O   UNL     1      67.574   8.247   4.779  1.00  0.00    -0.295 OA
HETATM    5  C   UNL     1      65.293   7.523   4.638  1.00  0.00     0.107 C 
HETATM    6  C   UNL     1      64.344   7.635   5.810  1.00  0.00     0.176 C 
HETATM    7  C   UNL     1      67.343   6.472   7.272  1.00  0.00     0.048 C 
ENDROOT
TORSDOF 0
ENDMDL
MODEL 8
REMARK VINA RESULT:      -2.8      7.068      8.228
REMARK  0 active torsions:
REMARK  status: ('A' for Active; 'I' for Inactive)
ROOT
HETATM    1  C   UNL     1      66.079   6.371   7.978  1.00  0.00     0.157 C 
HETATM    2  O   UNL     1      67.623   4.682   8.301  1.00  0.00    -0.378 OA
HETATM    3  C   UNL     1      66.639   5.120   7.341  1.00  0.00     0.186 C 
HETATM    4  O   UNL     1      65.199   7.074   7.498  1.00  0.00    -0.295 OA
HETATM    5  C   UNL     1      66.694   6.600   9.311  1.00  0.00     0.107 C 
HETATM    6  C   UNL     1      67.970   5.813   9.112  1.00  0.00     0.176 C 
HETATM    7  C   UNL     1      65.588   4.043   7.193  1.00  0.00     0.048 C 
ENDROOT
TORSDOF 0
ENDMDL
MODEL 9
REMARK VINA RESULT:      -2.7      5.832      7.212
REMARK  0 active torsions:
REMARK  status: ('A' for Active; 'I' for Inactive)
ROOT
HETATM    1  C   UNL     1      66.799   5.811   6.781  1.00  0.00     0.157 C 
HETATM    2  O   UNL     1      65.013   6.997   7.642  1.00  0.00    -0.378 OA
HETATM    3  C   UNL     1      66.446   6.893   7.774  1.00  0.00     0.186 C 
HETATM    4  O   UNL     1      67.929   5.393   6.565  1.00  0.00    -0.295 OA
HETATM    5  C   UNL     1      65.573   5.266   6.142  1.00  0.00     0.107 C 
HETATM    6  C   UNL     1      64.654   6.445   6.368  1.00  0.00     0.176 C 
HETATM    7  C   UNL     1      66.778   6.487   9.192  1.00  0.00     0.048 C 
ENDROOT
TORSDOF 0
ENDMDL
