MODEL 1
REMARK VINA RESULT:      -3.5      0.000      0.000
REMARK  0 active torsions:
REMARK  status: ('A' for Active; 'I' for Inactive)
ROOT
HETATM    1  C   UNL     1      63.727   9.611   5.169  1.00  0.00     0.131 C 
HETATM    2  O   UNL     1      64.871   9.399   5.569  1.00  0.00    -0.298 OA
HETATM    3  O   UNL     1      61.400  10.328   3.795  1.00  0.00    -0.390 OA
HETATM    4  C   UNL     1      62.965   8.579   4.379  1.00  0.00     0.104 C 
HETATM    5  C   UNL     1      62.964  10.845   5.574  1.00  0.00     0.104 C 
HETATM    6  C   UNL     1      62.198  11.364   4.373  1.00  0.00     0.175 C 
HETATM    7  C   UNL     1      62.213   9.279   3.266  1.00  0.00     0.175 C 
ENDROOT
TORSDOF 0
ENDMDL
MODEL 2
REMARK VINA RESULT:      -3.4      1.883      3.451
REMARK  0 active torsions:
REMARK  status: ('A' for Active; 'I' for Inactive)
ROOT
HETATM    1  C   UNL     1      61.927  10.855   2.512  1.00  0.00     0.131 C 
HETATM    2  O   UNL     1      61.969  11.991   2.044  1.00  0.00    -0.298 OA
HETATM    3  O   UNL     1      62.414   8.286   3.502  1.00  0.00    -0.390 OA
HETATM    4  C   UNL     1      61.985  10.614   3.999  1.00  0.00     0.104 C 
HETATM    5  C   UNL     1      61.660   9.651   1.647  1.00  0.00     0.104 C 
HETATM    6  C   UNL     1      62.555   8.514   2.097  1.00  0.00     0.175 C 
HETATM    7  C   UNL     1      62.866   9.410   4.260  1.00  0.00     0.175 C 
ENDROOT
TORSDOF 0
ENDMDL
MODEL 3
REMARK VINA RESULT:      -3.4      1.854      2.570
REMARK  0 active torsions:
REMARK  status: ('A' for Active; 'I' for Inactive)
ROOT
HETATM    1  C   UNL     1      62.447   8.939   2.710  1.00  0.00     0.131 C 
HETATM    2  O   UNL     1      63.074   7.960   2.311  1.00  0.00    -0.298 OA
HETATM    3  O   UNL     1      61.537  11.444   3.556  1.00  0.00    -0.390 OA
HETATM    4  C   UNL     1      61.694   9.834   1.759  1.00  0.00     0.104 C 
HETATM    5  C   UNL     1      62.264   9.217   4.179  1.00  0.00     0.104 C 
HETATM    6  C   UNL     1      62.408  10.707   4.419  1.00  0.00     0.175 C 
HETATM    7  C   UNL     1      61.898  11.273   2.184  1.00  0.00     0.175 C 
ENDROOT
TORSDOF 0
ENDMDL
MODEL 4
REMARK VINA RESULT:      -3.3      2.039      2.998
REMARK  0 active torsions:
REMARK  status: ('A' for Active; 'I' for Inactive)
ROOT
HETATM    1  C   UNL     1      62.042  10.698   3.436  1.00  0.00     0.131 C 
HETATM    2  O   UNL     1      61.675  11.656   4.113  1.00  0.00    -0.298 OA
HETATM    3  O   UNL     1      62.324   8.334   1.970  1.00  0.00    -0.390 OA
HETATM    4  C   UNL     1      61.978  10.727   1.930  1.00  0.00     0.104 C 
HETATM    5  C   UNL     1      62.720   9.504   4.055  1.00  0.00     0.104 C 
HETATM    6  C   UNL     1      62.199   8.245   3.392  1.00  0.00     0.175 C 
HETATM    7  C   UNL     1      61.501   9.376   1.440  1.00  0.00     0.175 C 
ENDROOT
TORSDOF 0
ENDMDL
MODEL 5
REMARK VINA RESULT:      -3.2      0.853      2.602
REMARK  0 active torsions:
REMARK  status: ('A' for Active; 'I' for Inactive)
ROOT
HETATM    1  C   UNL     1      62.156   9.388   3.810  1.00  0.00     0.131 C 
HETATM    2  O   UNL     1      61.138   8.958   3.271  1.00  0.00    -0.298 OA
HETATM    3  O   UNL     1      64.230  10.146   5.525  1.00  0.00    -0.390 OA
HETATM    4  C   UNL     1      63.412   8.559   3.893  1.00  0.00     0.104 C 
HETATM    5  C   UNL     1      62.261  10.815   4.279  1.00  0.00     0.104 C 
HETATM    6  C   UNL     1      62.984  10.842   5.612  1.00  0.00     0.175 C 
HETATM    7  C   UNL     1      64.032   8.756   5.261  1.00  0.00     0.175 C 
ENDROOT
TORSDOF 0
ENDMDL
MODEL 6
REMARK VINA RESULT:      -3.2      3.451      4.373
REMARK  0 active torsions:
REMARK  status: ('A' for Active; 'I' for Inactive)
ROOT
HETATM    1  C   UNL     1      66.389   8.067   5.608  1.00  0.00     0.131 C 
HETATM    2  O   UNL     1      67.330   8.231   4.834  1.00  0.00    -0.298 OA
HETATM    3  O   UNL     1      64.232   7.156   7.137  1.00  0.00    -0.390 OA
HETATM    4  C   UNL     1      66.606   7.604   7.025  1.00  0.00     0.104 C 
HETATM    5  C   UNL     1      64.983   8.466   5.241  1.00  0.00     0.104 C 
HETATM    6  C   UNL     1      64.024   7.406   5.744  1.00  0.00     0.175 C 
HETATM    7  C   UNL     1      65.527   6.602   7.378  1.00  0.00     0.175 C 
ENDROOT
TORSDOF 0
ENDMDL
MODEL 7
REMARK VINA RESULT:      -3.1      1.369      2.965
REMARK  0 active torsions:
REMARK  status: ('A' for Active; 'I' for Inactive)
ROOT
HETATM    1  C   UNL     1      62.622   9.065   3.100  1.00  0.00     0.131 C 
HETATM    2  O   UNL     1      62.556   8.914   1.881  1.00  0.00    -0.298 OA
HETATM    3  O   UNL     1      63.213   9.777   5.738  1.00  0.00    -0.390 OA
HETATM    4  C   UNL     1      61.786  10.097   3.811  1.00  0.00     0.104 C 
HETATM    5  C   UNL     1      63.421   8.131   3.971  1.00  0.00     0.104 C 
HETATM    6  C   UNL     1      64.135   8.942   5.034  1.00  0.00     0.175 C 
HETATM    7  C   UNL     1      62.637  10.760   4.875  1.00  0.00     0.175 C 
ENDROOT
TORSDOF 0
ENDMDL
MODEL 8
REMARK VINA RESULT:      -3.0      4.528      5.813
REMARK  0 active torsions:
REMARK  status: ('A' for Active; 'I' for Inactive)
ROOT
HETATM    1  C   UNL     1      66.581   8.039   6.308  1.00  0.00     0.131 C 
HETATM    2  O   UNL     1      65.853   9.029   6.261  1.00  0.00    -0.298 OA
HETATM    3  O   UNL     1      67.770   5.511   6.193  1.00  0.00    -0.390 OA
HETATM    4  C   UNL     1      67.505   7.687   5.170  1.00  0.00     0.104 C 
HETATM    5  C   UNL     1      66.711   7.210   7.559  1.00  0.00     0.104 C 
HETATM    6  C   UNL     1      66.757   5.745   7.174  1.00  0.00     0.175 C 
HETATM    7  C   UNL     1      67.473   6.186   4.968  1.00  0.00     0.175 C 
ENDROOT
TORSDOF 0
ENDMDL
MODEL 9
REMARK VINA RESULT:      -2.9      1.316      2.249
REMARK  0 active torsions:
REMARK  status: ('A' for Active; 'I' for Inactive)
ROOT
HETATM    1  C   UNL     1      63.166   8.779   5.192  1.00  0.00     0.131 C 
HETATM    2  O   UNL     1      63.233   8.252   6.301  1.00  0.00    -0.298 OA
HETATM    3  O   UNL     1      62.458   9.787   2.682  1.00  0.00    -0.390 OA
HETATM    4  C   UNL     1      62.813  10.235   5.032  1.00  0.00     0.104 C 
HETATM    5  C   UNL     1      63.582   8.048   3.942  1.00  0.00     0.104 C 
HETATM    6  C   UNL     1      62.600   8.372   2.834  1.00  0.00     0.175 C 
HETATM    7  C   UNL     1      61.881  10.380   3.847  1.00  0.00     0.175 C 
ENDROOT
TORSDOF 0
ENDMDL
