MODEL 1
REMARK VINA RESULT:      -4.2      0.000      0.000
REMARK  2 active torsions:
REMARK  status: ('A' for Active; 'I' for Inactive)
REMARK    1  A    between atoms: C_2  and  N_4 
REMARK    2  A    between atoms: C_3  and  N_5 
ROOT
HETATM    1  C   UNL     1      62.241  11.321   4.307  1.00  0.00     0.057 A 
HETATM    2  C   UNL     1      61.966  10.620   3.122  1.00  0.00     0.027 A 
HETATM    3  C   UNL     1      62.964  10.707   5.340  1.00  0.00     0.027 A 
HETATM    4  C   UNL     1      63.136   8.687   4.006  1.00  0.00     0.004 A 
HETATM    5  C   UNL     1      62.416   9.300   2.977  1.00  0.00     0.029 A 
HETATM    6  C   UNL     1      63.412   9.386   5.183  1.00  0.00     0.029 A 
ENDROOT
BRANCH   2   7
HETATM    7  N   UNL     1      61.240  11.245   2.078  1.00  0.00    -0.399 N 
HETATM    8  H   UNL     1      61.373  12.202   1.890  1.00  0.00     0.156 HD
HETATM    9  H   UNL     1      60.603  10.721   1.540  1.00  0.00     0.156 HD
ENDBRANCH   2   7
BRANCH   3  10
HETATM   10  N   UNL     1      63.246  11.421   6.532  1.00  0.00    -0.399 N 
HETATM   11  H   UNL     1      64.060  11.971   6.595  1.00  0.00     0.156 HD
HETATM   12  H   UNL     1      62.628  11.367   7.296  1.00  0.00     0.156 HD
ENDBRANCH   3  10
TORSDOF 2
ENDMDL
MODEL 2
REMARK VINA RESULT:      -4.2      0.017      2.987
REMARK  2 active torsions:
REMARK  status: ('A' for Active; 'I' for Inactive)
REMARK    1  A    between atoms: C_2  and  N_4 
REMARK    2  A    between atoms: C_3  and  N_5 
ROOT
HETATM    1  C   UNL     1      62.242  11.309   4.301  1.00  0.00     0.057 A 
HETATM    2  C   UNL     1      62.967  10.702   5.339  1.00  0.00     0.027 A 
HETATM    3  C   UNL     1      61.970  10.603   3.121  1.00  0.00     0.027 A 
HETATM    4  C   UNL     1      63.151   8.679   4.011  1.00  0.00     0.004 A 
HETATM    5  C   UNL     1      63.421   9.383   5.188  1.00  0.00     0.029 A 
HETATM    6  C   UNL     1      62.426   9.283   2.982  1.00  0.00     0.029 A 
ENDROOT
BRANCH   2   7
HETATM    7  N   UNL     1      63.236  11.417   6.532  1.00  0.00    -0.399 N 
HETATM    8  H   UNL     1      64.120  11.825   6.673  1.00  0.00     0.156 HD
HETATM    9  H   UNL     1      62.537  11.504   7.221  1.00  0.00     0.156 HD
ENDBRANCH   2   7
BRANCH   3  10
HETATM   10  N   UNL     1      61.230  11.217   2.080  1.00  0.00    -0.399 N 
HETATM   11  H   UNL     1      61.100  10.748   1.224  1.00  0.00     0.156 HD
HETATM   12  H   UNL     1      60.845  12.114   2.212  1.00  0.00     0.156 HD
ENDBRANCH   3  10
TORSDOF 2
ENDMDL
MODEL 3
REMARK VINA RESULT:      -4.0      1.705      3.241
REMARK  2 active torsions:
REMARK  status: ('A' for Active; 'I' for Inactive)
REMARK    1  A    between atoms: C_2  and  N_4 
REMARK    2  A    between atoms: C_3  and  N_5 
ROOT
HETATM    1  C   UNL     1      63.502   9.400   5.019  1.00  0.00     0.057 A 
HETATM    2  C   UNL     1      62.974  10.679   5.254  1.00  0.00     0.027 A 
HETATM    3  C   UNL     1      63.211   8.722   3.826  1.00  0.00     0.027 A 
HETATM    4  C   UNL     1      61.859  10.602   3.100  1.00  0.00     0.004 A 
HETATM    5  C   UNL     1      62.150  11.277   4.288  1.00  0.00     0.029 A 
HETATM    6  C   UNL     1      62.388   9.330   2.866  1.00  0.00     0.029 A 
ENDROOT
BRANCH   2   7
HETATM    7  N   UNL     1      63.274  11.363   6.458  1.00  0.00    -0.399 N 
HETATM    8  H   UNL     1      63.666  10.875   7.217  1.00  0.00     0.156 HD
HETATM    9  H   UNL     1      63.090  12.328   6.534  1.00  0.00     0.156 HD
ENDBRANCH   2   7
BRANCH   3  10
HETATM   10  N   UNL     1      63.753   7.434   3.591  1.00  0.00    -0.399 N 
HETATM   11  H   UNL     1      64.305   6.998   4.278  1.00  0.00     0.156 HD
HETATM   12  H   UNL     1      63.575   6.973   2.738  1.00  0.00     0.156 HD
ENDBRANCH   3  10
TORSDOF 2
ENDMDL
MODEL 4
REMARK VINA RESULT:      -3.9      1.741      2.440
REMARK  2 active torsions:
REMARK  status: ('A' for Active; 'I' for Inactive)
REMARK    1  A    between atoms: C_2  and  N_4 
REMARK    2  A    between atoms: C_3  and  N_5 
ROOT
HETATM    1  C   UNL     1      63.586   9.401   5.036  1.00  0.00     0.057 A 
HETATM    2  C   UNL     1      63.263   8.674   3.879  1.00  0.00     0.027 A 
HETATM    3  C   UNL     1      63.045  10.678   5.243  1.00  0.00     0.027 A 
HETATM    4  C   UNL     1      61.857  10.506   3.134  1.00  0.00     0.004 A 
HETATM    5  C   UNL     1      62.396   9.233   2.929  1.00  0.00     0.029 A 
HETATM    6  C   UNL     1      62.177  11.227   4.287  1.00  0.00     0.029 A 
ENDROOT
BRANCH   2   7
HETATM    7  N   UNL     1      63.807   7.382   3.675  1.00  0.00    -0.399 N 
HETATM    8  H   UNL     1      64.574   7.080   4.213  1.00  0.00     0.156 HD
HETATM    9  H   UNL     1      63.416   6.786   2.996  1.00  0.00     0.156 HD
ENDBRANCH   2   7
BRANCH   3  10
HETATM   10  N   UNL     1      63.368  11.405   6.416  1.00  0.00    -0.399 N 
HETATM   11  H   UNL     1      64.148  12.005   6.425  1.00  0.00     0.156 HD
HETATM   12  H   UNL     1      62.811  11.311   7.223  1.00  0.00     0.156 HD
ENDBRANCH   3  10
TORSDOF 2
ENDMDL
MODEL 5
REMARK VINA RESULT:      -3.7      1.734      2.509
REMARK  2 active torsions:
REMARK  status: ('A' for Active; 'I' for Inactive)
REMARK    1  A    between atoms: C_2  and  N_4 
REMARK    2  A    between atoms: C_3  and  N_5 
ROOT
HETATM    1  C   UNL     1      62.782   8.731   3.520  1.00  0.00     0.057 A 
HETATM    2  C   UNL     1      62.402   8.844   2.174  1.00  0.00     0.027 A 
HETATM    3  C   UNL     1      62.656   9.826   4.386  1.00  0.00     0.027 A 
HETATM    4  C   UNL     1      61.773  11.156   2.558  1.00  0.00     0.004 A 
HETATM    5  C   UNL     1      61.897  10.063   1.696  1.00  0.00     0.029 A 
HETATM    6  C   UNL     1      62.148  11.040   3.899  1.00  0.00     0.029 A 
ENDROOT
BRANCH   2   7
HETATM    7  N   UNL     1      62.525   7.733   1.303  1.00  0.00    -0.399 N 
HETATM    8  H   UNL     1      62.543   7.871   0.329  1.00  0.00     0.156 HD
HETATM    9  H   UNL     1      62.594   6.823   1.673  1.00  0.00     0.156 HD
ENDBRANCH   2   7
BRANCH   3  10
HETATM   10  N   UNL     1      63.034   9.704   5.747  1.00  0.00    -0.399 N 
HETATM   11  H   UNL     1      62.456   9.217   6.377  1.00  0.00     0.156 HD
HETATM   12  H   UNL     1      63.875  10.107   6.062  1.00  0.00     0.156 HD
ENDBRANCH   3  10
TORSDOF 2
ENDMDL
MODEL 6
REMARK VINA RESULT:      -3.7      1.703      3.135
REMARK  2 active torsions:
REMARK  status: ('A' for Active; 'I' for Inactive)
REMARK    1  A    between atoms: C_2  and  N_4 
REMARK    2  A    between atoms: C_3  and  N_5 
ROOT
HETATM    1  C   UNL     1      62.451   9.386   2.805  1.00  0.00     0.057 A 
HETATM    2  C   UNL     1      63.141   8.619   3.756  1.00  0.00     0.027 A 
HETATM    3  C   UNL     1      62.014  10.680   3.121  1.00  0.00     0.027 A 
HETATM    4  C   UNL     1      62.954  10.442   5.346  1.00  0.00     0.004 A 
HETATM    5  C   UNL     1      63.390   9.153   5.029  1.00  0.00     0.029 A 
HETATM    6  C   UNL     1      62.270  11.206   4.397  1.00  0.00     0.029 A 
ENDROOT
BRANCH   2   7
HETATM    7  N   UNL     1      63.586   7.313   3.431  1.00  0.00    -0.399 N 
HETATM    8  H   UNL     1      63.960   7.128   2.540  1.00  0.00     0.156 HD
HETATM    9  H   UNL     1      63.523   6.592   4.099  1.00  0.00     0.156 HD
ENDBRANCH   2   7
BRANCH   3  10
HETATM   10  N   UNL     1      61.325  11.454   2.154  1.00  0.00    -0.399 N 
HETATM   11  H   UNL     1      60.438  11.169   1.835  1.00  0.00     0.156 HD
HETATM   12  H   UNL     1      61.732  12.279   1.802  1.00  0.00     0.156 HD
ENDBRANCH   3  10
TORSDOF 2
ENDMDL
MODEL 7
REMARK VINA RESULT:      -3.6      1.686      2.500
REMARK  2 active torsions:
REMARK  status: ('A' for Active; 'I' for Inactive)
REMARK    1  A    between atoms: C_2  and  N_4 
REMARK    2  A    between atoms: C_3  and  N_5 
ROOT
HETATM    1  C   UNL     1      62.335   9.404   2.880  1.00  0.00     0.057 A 
HETATM    2  C   UNL     1      61.998  10.735   3.175  1.00  0.00     0.027 A 
HETATM    3  C   UNL     1      62.966   8.604   3.843  1.00  0.00     0.027 A 
HETATM    4  C   UNL     1      62.929  10.466   5.400  1.00  0.00     0.004 A 
HETATM    5  C   UNL     1      62.300  11.262   4.440  1.00  0.00     0.029 A 
HETATM    6  C   UNL     1      63.260   9.141   5.105  1.00  0.00     0.029 A 
ENDROOT
BRANCH   2   7
HETATM    7  N   UNL     1      61.356  11.540   2.202  1.00  0.00    -0.399 N 
HETATM    8  H   UNL     1      60.509  11.242   1.798  1.00  0.00     0.156 HD
HETATM    9  H   UNL     1      61.757  12.397   1.930  1.00  0.00     0.156 HD
ENDBRANCH   2   7
BRANCH   3  10
HETATM   10  N   UNL     1      63.297   7.259   3.543  1.00  0.00    -0.399 N 
HETATM   11  H   UNL     1      64.197   7.034   3.214  1.00  0.00     0.156 HD
HETATM   12  H   UNL     1      62.626   6.548   3.664  1.00  0.00     0.156 HD
ENDBRANCH   3  10
TORSDOF 2
ENDMDL
MODEL 8
REMARK VINA RESULT:      -3.1     12.577     13.482
REMARK  2 active torsions:
REMARK  status: ('A' for Active; 'I' for Inactive)
REMARK    1  A    between atoms: C_2  and  N_4 
REMARK    2  A    between atoms: C_3  and  N_5 
ROOT
HETATM    1  C   UNL     1      56.956   2.328  12.704  1.00  0.00     0.057 A 
HETATM    2  C   UNL     1      56.785   1.444  13.781  1.00  0.00     0.027 A 
HETATM    3  C   UNL     1      58.215   2.481  12.106  1.00  0.00     0.027 A 
HETATM    4  C   UNL     1      59.139   0.865  13.664  1.00  0.00     0.004 A 
HETATM    5  C   UNL     1      57.884   0.714  14.259  1.00  0.00     0.029 A 
HETATM    6  C   UNL     1      59.306   1.743  12.590  1.00  0.00     0.029 A 
ENDROOT
BRANCH   2   7
HETATM    7  N   UNL     1      55.510   1.288  14.380  1.00  0.00    -0.399 N 
HETATM    8  H   UNL     1      54.919   2.067  14.488  1.00  0.00     0.156 HD
HETATM    9  H   UNL     1      55.217   0.400  14.688  1.00  0.00     0.156 HD
ENDBRANCH   2   7
BRANCH   3  10
HETATM   10  N   UNL     1      58.380   3.369  11.014  1.00  0.00    -0.399 N 
HETATM   11  H   UNL     1      59.175   3.299  10.438  1.00  0.00     0.156 HD
HETATM   12  H   UNL     1      57.698   4.055  10.830  1.00  0.00     0.156 HD
ENDBRANCH   3  10
TORSDOF 2
ENDMDL
MODEL 9
REMARK VINA RESULT:      -3.1     12.572     13.351
REMARK  2 active torsions:
REMARK  status: ('A' for Active; 'I' for Inactive)
REMARK    1  A    between atoms: C_2  and  N_4 
REMARK    2  A    between atoms: C_3  and  N_5 
ROOT
HETATM    1  C   UNL     1      56.936   2.347  12.691  1.00  0.00     0.057 A 
HETATM    2  C   UNL     1      58.200   2.486  12.095  1.00  0.00     0.027 A 
HETATM    3  C   UNL     1      56.757   1.475  13.774  1.00  0.00     0.027 A 
HETATM    4  C   UNL     1      59.106   0.876  13.668  1.00  0.00     0.004 A 
HETATM    5  C   UNL     1      59.284   1.745  12.589  1.00  0.00     0.029 A 
HETATM    6  C   UNL     1      57.849   0.741  14.262  1.00  0.00     0.029 A 
ENDROOT
BRANCH   2   7
HETATM    7  N   UNL     1      58.379   3.371  11.003  1.00  0.00    -0.399 N 
HETATM    8  H   UNL     1      59.276   3.716  10.791  1.00  0.00     0.156 HD
HETATM    9  H   UNL     1      57.605   3.641  10.457  1.00  0.00     0.156 HD
ENDBRANCH   2   7
BRANCH   3  10
HETATM   10  N   UNL     1      55.481   1.344  14.378  1.00  0.00    -0.399 N 
HETATM   11  H   UNL     1      55.121   0.451  14.582  1.00  0.00     0.156 HD
HETATM   12  H   UNL     1      54.954   2.148  14.594  1.00  0.00     0.156 HD
ENDBRANCH   3  10
TORSDOF 2
ENDMDL
