MODEL 1
REMARK VINA RESULT:      -5.7      0.000      0.000
REMARK  2 active torsions:
REMARK  status: ('A' for Active; 'I' for Inactive)
REMARK    1  A    between atoms: C_1  and  N_2 
REMARK       I    between atoms: N_2  and  C_3 
REMARK    2  A    between atoms: C_4  and  O_10 
ROOT
HETATM    1  C   UNL     1      63.196   9.258   4.919  1.00  0.00     0.068 A 
HETATM    2  C   UNL     1      62.826  10.556   5.296  1.00  0.00     0.092 A 
HETATM    3  C   UNL     1      62.879   8.838   3.614  1.00  0.00     0.039 A 
HETATM    4  C   UNL     1      62.212  11.416   4.381  1.00  0.00     0.039 A 
HETATM    5  C   UNL     1      62.196   9.669   2.715  1.00  0.00    -0.060 A 
HETATM    6  C   UNL     1      61.891  10.975   3.099  1.00  0.00     0.009 A 
HETATM    7  C   UNL     1      61.751   9.163   1.375  1.00  0.00     0.048 C 
ENDROOT
BRANCH   1   8
HETATM    8  N   UNL     1      63.891   8.307   5.708  1.00  0.00    -0.325 N 
HETATM    9  C   UNL     1      65.245   8.055   5.762  1.00  0.00     0.218 C 
HETATM   10  O   UNL     1      66.111   8.680   5.158  1.00  0.00    -0.274 OA
HETATM   11  C   UNL     1      65.596   6.903   6.667  1.00  0.00     0.117 C 
HETATM   12  H   UNL     1      63.330   7.752   6.298  1.00  0.00     0.169 HD
ENDBRANCH   1   8
BRANCH   2  13
HETATM   13  O   UNL     1      63.036  11.113   6.524  1.00  0.00    -0.358 OA
HETATM   14  H   UNL     1      62.308  11.394   7.042  1.00  0.00     0.217 HD
ENDBRANCH   2  13
TORSDOF 2
ENDMDL
MODEL 2
REMARK VINA RESULT:      -5.4      1.394      1.456
REMARK  2 active torsions:
REMARK  status: ('A' for Active; 'I' for Inactive)
REMARK    1  A    between atoms: C_1  and  N_2 
REMARK       I    between atoms: N_2  and  C_3 
REMARK    2  A    between atoms: C_4  and  O_10 
ROOT
HETATM    1  C   UNL     1      63.205   8.787   4.275  1.00  0.00     0.068 A 
HETATM    2  C   UNL     1      62.787  10.045   4.730  1.00  0.00     0.092 A 
HETATM    3  C   UNL     1      62.900   8.435   2.947  1.00  0.00     0.039 A 
HETATM    4  C   UNL     1      62.136  10.934   3.869  1.00  0.00     0.039 A 
HETATM    5  C   UNL     1      62.181   9.291   2.101  1.00  0.00    -0.060 A 
HETATM    6  C   UNL     1      61.828  10.558   2.563  1.00  0.00     0.009 A 
HETATM    7  C   UNL     1      61.751   8.850   0.733  1.00  0.00     0.048 C 
ENDROOT
BRANCH   1   8
HETATM    8  N   UNL     1      63.939   7.818   5.004  1.00  0.00    -0.325 N 
HETATM    9  C   UNL     1      63.687   7.309   6.260  1.00  0.00     0.218 C 
HETATM   10  O   UNL     1      62.712   7.577   6.955  1.00  0.00    -0.274 OA
HETATM   11  C   UNL     1      64.748   6.350   6.732  1.00  0.00     0.117 C 
HETATM   12  H   UNL     1      64.737   7.460   4.551  1.00  0.00     0.169 HD
ENDBRANCH   1   8
BRANCH   2  13
HETATM   13  O   UNL     1      62.980  10.534   5.989  1.00  0.00    -0.358 OA
HETATM   14  H   UNL     1      63.847  10.608   6.335  1.00  0.00     0.217 HD
ENDBRANCH   2  13
TORSDOF 2
ENDMDL
MODEL 3
REMARK VINA RESULT:      -4.6      1.735      2.720
REMARK  2 active torsions:
REMARK  status: ('A' for Active; 'I' for Inactive)
REMARK    1  A    between atoms: C_1  and  N_2 
REMARK       I    between atoms: N_2  and  C_3 
REMARK    2  A    between atoms: C_4  and  O_10 
ROOT
HETATM    1  C   UNL     1      64.027   8.269   4.868  1.00  0.00     0.068 A 
HETATM    2  C   UNL     1      63.827   7.538   3.689  1.00  0.00     0.092 A 
HETATM    3  C   UNL     1      63.361   9.502   4.997  1.00  0.00     0.039 A 
HETATM    4  C   UNL     1      62.950   8.001   2.703  1.00  0.00     0.039 A 
HETATM    5  C   UNL     1      62.538  10.008   3.980  1.00  0.00    -0.060 A 
HETATM    6  C   UNL     1      62.314   9.232   2.843  1.00  0.00     0.009 A 
HETATM    7  C   UNL     1      61.940  11.380   4.077  1.00  0.00     0.048 C 
ENDROOT
BRANCH   1   8
HETATM    8  N   UNL     1      64.819   7.891   5.981  1.00  0.00    -0.325 N 
HETATM    9  C   UNL     1      66.191   7.917   6.113  1.00  0.00     0.218 C 
HETATM   10  O   UNL     1      66.980   8.347   5.277  1.00  0.00    -0.274 OA
HETATM   11  C   UNL     1      66.669   7.355   7.427  1.00  0.00     0.117 C 
HETATM   12  H   UNL     1      64.321   7.567   6.767  1.00  0.00     0.169 HD
ENDBRANCH   1   8
BRANCH   2  13
HETATM   13  O   UNL     1      64.410   6.340   3.394  1.00  0.00    -0.358 OA
HETATM   14  H   UNL     1      63.877   5.593   3.208  1.00  0.00     0.217 HD
ENDBRANCH   2  13
TORSDOF 2
ENDMDL
MODEL 4
REMARK VINA RESULT:      -4.5      2.748      4.609
REMARK  2 active torsions:
REMARK  status: ('A' for Active; 'I' for Inactive)
REMARK    1  A    between atoms: C_1  and  N_2 
REMARK       I    between atoms: N_2  and  C_3 
REMARK    2  A    between atoms: C_4  and  O_10 
ROOT
HETATM    1  C   UNL     1      62.258   9.024   2.938  1.00  0.00     0.068 A 
HETATM    2  C   UNL     1      62.208  10.096   3.839  1.00  0.00     0.092 A 
HETATM    3  C   UNL     1      63.217   8.020   3.165  1.00  0.00     0.039 A 
HETATM    4  C   UNL     1      63.051  10.131   4.954  1.00  0.00     0.039 A 
HETATM    5  C   UNL     1      64.117   8.086   4.239  1.00  0.00    -0.060 A 
HETATM    6  C   UNL     1      64.006   9.135   5.151  1.00  0.00     0.009 A 
HETATM    7  C   UNL     1      65.216   7.077   4.393  1.00  0.00     0.048 C 
ENDROOT
BRANCH   1   8
HETATM    8  N   UNL     1      61.419   8.815   1.815  1.00  0.00    -0.325 N 
HETATM    9  C   UNL     1      60.272   8.055   1.723  1.00  0.00     0.218 C 
HETATM   10  O   UNL     1      59.735   7.461   2.653  1.00  0.00    -0.274 OA
HETATM   11  C   UNL     1      59.701   8.013   0.331  1.00  0.00     0.117 C 
HETATM   12  H   UNL     1      61.692   9.276   0.988  1.00  0.00     0.169 HD
ENDBRANCH   1   8
BRANCH   2  13
HETATM   13  O   UNL     1      61.358  11.160   3.754  1.00  0.00    -0.358 OA
HETATM   14  H   UNL     1      61.664  12.022   3.957  1.00  0.00     0.217 HD
ENDBRANCH   2  13
TORSDOF 2
ENDMDL
MODEL 5
REMARK VINA RESULT:      -4.4      2.679      4.464
REMARK  2 active torsions:
REMARK  status: ('A' for Active; 'I' for Inactive)
REMARK    1  A    between atoms: C_1  and  N_2 
REMARK       I    between atoms: N_2  and  C_3 
REMARK    2  A    between atoms: C_4  and  O_10 
ROOT
HETATM    1  C   UNL     1      61.754   8.676   3.868  1.00  0.00     0.068 A 
HETATM    2  C   UNL     1      62.710   8.433   4.863  1.00  0.00     0.092 A 
HETATM    3  C   UNL     1      60.667   7.788   3.771  1.00  0.00     0.039 A 
HETATM    4  C   UNL     1      62.552   7.372   5.759  1.00  0.00     0.039 A 
HETATM    5  C   UNL     1      60.541   6.678   4.619  1.00  0.00    -0.060 A 
HETATM    6  C   UNL     1      61.478   6.494   5.635  1.00  0.00     0.009 A 
HETATM    7  C   UNL     1      59.449   5.669   4.420  1.00  0.00     0.048 C 
ENDROOT
BRANCH   1   8
HETATM    8  N   UNL     1      61.739   9.752   2.945  1.00  0.00    -0.325 N 
HETATM    9  C   UNL     1      61.821  11.105   3.194  1.00  0.00     0.218 C 
HETATM   10  O   UNL     1      61.989  11.618   4.296  1.00  0.00    -0.274 OA
HETATM   11  C   UNL     1      61.688  11.944   1.950  1.00  0.00     0.117 C 
HETATM   12  H   UNL     1      61.661   9.497   1.996  1.00  0.00     0.169 HD
ENDBRANCH   1   8
BRANCH   2  13
HETATM   13  O   UNL     1      63.832   9.179   5.080  1.00  0.00    -0.358 OA
HETATM   14  H   UNL     1      63.984   9.564   5.920  1.00  0.00     0.217 HD
ENDBRANCH   2  13
TORSDOF 2
ENDMDL
MODEL 6
REMARK VINA RESULT:      -4.2      2.669      3.321
REMARK  2 active torsions:
REMARK  status: ('A' for Active; 'I' for Inactive)
REMARK    1  A    between atoms: C_1  and  N_2 
REMARK       I    between atoms: N_2  and  C_3 
REMARK    2  A    between atoms: C_4  and  O_10 
ROOT
HETATM    1  C   UNL     1      62.342   8.344   3.970  1.00  0.00     0.068 A 
HETATM    2  C   UNL     1      62.725   8.834   5.226  1.00  0.00     0.092 A 
HETATM    3  C   UNL     1      62.033   9.280   2.966  1.00  0.00     0.039 A 
HETATM    4  C   UNL     1      62.843  10.210   5.448  1.00  0.00     0.039 A 
HETATM    5  C   UNL     1      62.077  10.661   3.204  1.00  0.00    -0.060 A 
HETATM    6  C   UNL     1      62.515  11.120   4.446  1.00  0.00     0.009 A 
HETATM    7  C   UNL     1      61.620  11.643   2.165  1.00  0.00     0.048 C 
ENDROOT
BRANCH   1   8
HETATM    8  N   UNL     1      62.255   6.985   3.577  1.00  0.00    -0.325 N 
HETATM    9  C   UNL     1      61.320   6.039   3.940  1.00  0.00     0.218 C 
HETATM   10  O   UNL     1      60.335   6.244   4.642  1.00  0.00    -0.274 OA
HETATM   11  C   UNL     1      61.612   4.673   3.376  1.00  0.00     0.117 C 
HETATM   12  H   UNL     1      62.958   6.675   2.960  1.00  0.00     0.169 HD
ENDBRANCH   1   8
BRANCH   2  13
HETATM   13  O   UNL     1      63.036   8.069   6.312  1.00  0.00    -0.358 OA
HETATM   14  H   UNL     1      63.577   7.311   6.211  1.00  0.00     0.217 HD
ENDBRANCH   2  13
TORSDOF 2
ENDMDL
MODEL 7
REMARK VINA RESULT:      -4.1      2.265      3.114
REMARK  2 active torsions:
REMARK  status: ('A' for Active; 'I' for Inactive)
REMARK    1  A    between atoms: C_1  and  N_2 
REMARK       I    between atoms: N_2  and  C_3 
REMARK    2  A    between atoms: C_4  and  O_10 
ROOT
HETATM    1  C   UNL     1      64.264   7.213   6.105  1.00  0.00     0.068 A 
HETATM    2  C   UNL     1      64.335   8.393   5.352  1.00  0.00     0.092 A 
HETATM    3  C   UNL     1      63.431   6.182   5.632  1.00  0.00     0.039 A 
HETATM    4  C   UNL     1      63.639   8.511   4.145  1.00  0.00     0.039 A 
HETATM    5  C   UNL     1      62.672   6.322   4.461  1.00  0.00    -0.060 A 
HETATM    6  C   UNL     1      62.806   7.485   3.704  1.00  0.00     0.009 A 
HETATM    7  C   UNL     1      61.692   5.267   4.041  1.00  0.00     0.048 C 
ENDROOT
BRANCH   1   8
HETATM    8  N   UNL     1      64.969   6.920   7.299  1.00  0.00    -0.325 N 
HETATM    9  C   UNL     1      66.328   6.951   7.529  1.00  0.00     0.218 C 
HETATM   10  O   UNL     1      67.179   7.311   6.721  1.00  0.00    -0.274 OA
HETATM   11  C   UNL     1      66.704   6.493   8.913  1.00  0.00     0.117 C 
HETATM   12  H   UNL     1      64.412   6.660   8.069  1.00  0.00     0.169 HD
ENDBRANCH   1   8
BRANCH   2  13
HETATM   13  O   UNL     1      65.072   9.494   5.677  1.00  0.00    -0.358 OA
HETATM   14  H   UNL     1      65.682   9.847   5.060  1.00  0.00     0.217 HD
ENDBRANCH   2  13
TORSDOF 2
ENDMDL
MODEL 8
REMARK VINA RESULT:      -4.1      3.037      4.474
REMARK  2 active torsions:
REMARK  status: ('A' for Active; 'I' for Inactive)
REMARK    1  A    between atoms: C_1  and  N_2 
REMARK       I    between atoms: N_2  and  C_3 
REMARK    2  A    between atoms: C_4  and  O_10 
ROOT
HETATM    1  C   UNL     1      61.083   8.645   2.882  1.00  0.00     0.068 A 
HETATM    2  C   UNL     1      61.296   8.750   1.500  1.00  0.00     0.092 A 
HETATM    3  C   UNL     1      59.939   7.952   3.318  1.00  0.00     0.039 A 
HETATM    4  C   UNL     1      60.424   8.137   0.596  1.00  0.00     0.039 A 
HETATM    5  C   UNL     1      59.019   7.399   2.415  1.00  0.00    -0.060 A 
HETATM    6  C   UNL     1      59.287   7.471   1.049  1.00  0.00     0.009 A 
HETATM    7  C   UNL     1      57.740   6.778   2.893  1.00  0.00     0.048 C 
ENDROOT
BRANCH   1   8
HETATM    8  N   UNL     1      61.918   9.143   3.913  1.00  0.00    -0.325 N 
HETATM    9  C   UNL     1      62.172  10.452   4.262  1.00  0.00     0.218 C 
HETATM   10  O   UNL     1      61.648  11.440   3.755  1.00  0.00    -0.274 OA
HETATM   11  C   UNL     1      63.186  10.583   5.367  1.00  0.00     0.117 C 
HETATM   12  H   UNL     1      62.379   8.461   4.454  1.00  0.00     0.169 HD
ENDBRANCH   1   8
BRANCH   2  13
HETATM   13  O   UNL     1      62.338   9.403   0.909  1.00  0.00    -0.358 OA
HETATM   14  H   UNL     1      63.220   9.155   1.108  1.00  0.00     0.217 HD
ENDBRANCH   2  13
TORSDOF 2
ENDMDL
MODEL 9
REMARK VINA RESULT:      -4.0      2.398      5.365
REMARK  2 active torsions:
REMARK  status: ('A' for Active; 'I' for Inactive)
REMARK    1  A    between atoms: C_1  and  N_2 
REMARK       I    between atoms: N_2  and  C_3 
REMARK    2  A    between atoms: C_4  and  O_10 
ROOT
HETATM    1  C   UNL     1      65.160   6.624   5.197  1.00  0.00     0.068 A 
HETATM    2  C   UNL     1      65.546   6.351   6.516  1.00  0.00     0.092 A 
HETATM    3  C   UNL     1      65.767   5.882   4.168  1.00  0.00     0.039 A 
HETATM    4  C   UNL     1      66.466   5.335   6.794  1.00  0.00     0.039 A 
HETATM    5  C   UNL     1      66.746   4.913   4.433  1.00  0.00    -0.060 A 
HETATM    6  C   UNL     1      67.069   4.624   5.758  1.00  0.00     0.009 A 
HETATM    7  C   UNL     1      67.477   4.223   3.320  1.00  0.00     0.048 C 
ENDROOT
BRANCH   1   8
HETATM    8  N   UNL     1      64.187   7.563   4.772  1.00  0.00    -0.325 N 
HETATM    9  C   UNL     1      64.105   8.910   5.057  1.00  0.00     0.218 C 
HETATM   10  O   UNL     1      64.927   9.554   5.701  1.00  0.00    -0.274 OA
HETATM   11  C   UNL     1      62.872   9.560   4.485  1.00  0.00     0.117 C 
HETATM   12  H   UNL     1      63.475   7.206   4.194  1.00  0.00     0.169 HD
ENDBRANCH   1   8
BRANCH   2  13
HETATM   13  O   UNL     1      65.075   6.989   7.626  1.00  0.00    -0.358 OA
HETATM   14  H   UNL     1      65.668   7.254   8.302  1.00  0.00     0.217 HD
ENDBRANCH   2  13
TORSDOF 2
ENDMDL
