MODEL 1
REMARK VINA RESULT:      -4.6      0.000      0.000
REMARK  1 active torsions:
REMARK  status: ('A' for Active; 'I' for Inactive)
REMARK    1  A    between atoms: C_1  and  N_7 
ROOT
HETATM    1  C   UNL     1      62.493  10.223   4.400  1.00  0.00     0.031 A 
HETATM    2  C   UNL     1      61.800  11.255   2.323  1.00  0.00     0.121 A 
HETATM    3  C   UNL     1      62.430   8.959   2.336  1.00  0.00     0.121 A 
HETATM    4  C   UNL     1      62.077  11.350   3.686  1.00  0.00     0.071 A 
HETATM    5  C   UNL     1      62.713   9.034   3.699  1.00  0.00     0.071 A 
HETATM    6  C   UNL     1      61.965  10.062   1.638  1.00  0.00     0.084 A 
HETATM    7  F   UNL     1      61.380  12.342   1.661  1.00  0.00    -0.206 F 
HETATM    8  F   UNL     1      62.625   7.803   1.688  1.00  0.00    -0.206 F 
ENDROOT
BRANCH   1   9
HETATM    9  N   UNL     1      62.905  10.344   5.732  1.00  0.00    -0.399 N 
HETATM   10  H   UNL     1      63.106  11.232   6.106  1.00  0.00     0.156 HD
HETATM   11  H   UNL     1      62.994   9.540   6.294  1.00  0.00     0.156 HD
ENDBRANCH   1   9
TORSDOF 1
ENDMDL
MODEL 2
REMARK VINA RESULT:      -4.5      2.258      3.378
REMARK  1 active torsions:
REMARK  status: ('A' for Active; 'I' for Inactive)
REMARK    1  A    between atoms: C_1  and  N_7 
ROOT
HETATM    1  C   UNL     1      62.304   8.940   2.337  1.00  0.00     0.031 A 
HETATM    2  C   UNL     1      62.393  10.257   4.367  1.00  0.00     0.121 A 
HETATM    3  C   UNL     1      61.805  11.309   2.314  1.00  0.00     0.121 A 
HETATM    4  C   UNL     1      62.562   9.040   3.707  1.00  0.00     0.071 A 
HETATM    5  C   UNL     1      61.969  10.102   1.636  1.00  0.00     0.071 A 
HETATM    6  C   UNL     1      62.008  11.397   3.682  1.00  0.00     0.084 A 
HETATM    7  F   UNL     1      62.623  10.326   5.685  1.00  0.00    -0.206 F 
HETATM    8  F   UNL     1      61.460  12.406   1.627  1.00  0.00    -0.206 F 
ENDROOT
BRANCH   1   9
HETATM    9  N   UNL     1      62.604   7.761   1.647  1.00  0.00    -0.399 N 
HETATM   10  H   UNL     1      63.218   7.784   0.877  1.00  0.00     0.156 HD
HETATM   11  H   UNL     1      62.201   6.909   1.930  1.00  0.00     0.156 HD
ENDBRANCH   1   9
TORSDOF 1
ENDMDL
MODEL 3
REMARK VINA RESULT:      -4.4      0.672      2.798
REMARK  1 active torsions:
REMARK  status: ('A' for Active; 'I' for Inactive)
REMARK    1  A    between atoms: C_1  and  N_7 
ROOT
HETATM    1  C   UNL     1      62.756  10.494   4.907  1.00  0.00     0.031 A 
HETATM    2  C   UNL     1      62.663   8.866   3.118  1.00  0.00     0.121 A 
HETATM    3  C   UNL     1      61.844  11.070   2.739  1.00  0.00     0.121 A 
HETATM    4  C   UNL     1      62.970   9.196   4.438  1.00  0.00     0.071 A 
HETATM    5  C   UNL     1      62.143  11.418   4.056  1.00  0.00     0.071 A 
HETATM    6  C   UNL     1      62.107   9.798   2.256  1.00  0.00     0.084 A 
HETATM    7  F   UNL     1      62.898   7.622   2.680  1.00  0.00    -0.206 F 
HETATM    8  F   UNL     1      61.280  11.977   1.932  1.00  0.00    -0.206 F 
ENDROOT
BRANCH   1   9
HETATM    9  N   UNL     1      62.931  10.792   6.263  1.00  0.00    -0.399 N 
HETATM   10  H   UNL     1      62.196  10.635   6.900  1.00  0.00     0.156 HD
HETATM   11  H   UNL     1      63.787  11.160   6.579  1.00  0.00     0.156 HD
ENDBRANCH   1   9
TORSDOF 1
ENDMDL
MODEL 4
REMARK VINA RESULT:      -4.4      2.257      2.776
REMARK  1 active torsions:
REMARK  status: ('A' for Active; 'I' for Inactive)
REMARK    1  A    between atoms: C_1  and  N_7 
ROOT
HETATM    1  C   UNL     1      62.407   8.930   2.325  1.00  0.00     0.031 A 
HETATM    2  C   UNL     1      61.797  11.273   2.297  1.00  0.00     0.121 A 
HETATM    3  C   UNL     1      62.400  10.245   4.358  1.00  0.00     0.121 A 
HETATM    4  C   UNL     1      61.968  10.060   1.630  1.00  0.00     0.071 A 
HETATM    5  C   UNL     1      62.576   9.024   3.709  1.00  0.00     0.071 A 
HETATM    6  C   UNL     1      62.017  11.380   3.660  1.00  0.00     0.084 A 
HETATM    7  F   UNL     1      61.397  12.350   1.607  1.00  0.00    -0.206 F 
HETATM    8  F   UNL     1      62.590  10.319   5.681  1.00  0.00    -0.206 F 
ENDROOT
BRANCH   1   9
HETATM    9  N   UNL     1      62.447   7.683   1.692  1.00  0.00    -0.399 N 
HETATM   10  H   UNL     1      61.751   7.441   1.039  1.00  0.00     0.156 HD
HETATM   11  H   UNL     1      63.169   7.048   1.901  1.00  0.00     0.156 HD
ENDBRANCH   1   9
TORSDOF 1
ENDMDL
MODEL 5
REMARK VINA RESULT:      -4.1      1.647      2.809
REMARK  1 active torsions:
REMARK  status: ('A' for Active; 'I' for Inactive)
REMARK    1  A    between atoms: C_1  and  N_7 
ROOT
HETATM    1  C   UNL     1      63.002   8.780   4.194  1.00  0.00     0.031 A 
HETATM    2  C   UNL     1      62.066   9.702   2.161  1.00  0.00     0.121 A 
HETATM    3  C   UNL     1      62.228  11.072   4.102  1.00  0.00     0.121 A 
HETATM    4  C   UNL     1      62.602   8.624   2.864  1.00  0.00     0.071 A 
HETATM    5  C   UNL     1      62.765  10.005   4.822  1.00  0.00     0.071 A 
HETATM    6  C   UNL     1      61.881  10.934   2.768  1.00  0.00     0.084 A 
HETATM    7  F   UNL     1      61.710   9.539   0.880  1.00  0.00    -0.206 F 
HETATM    8  F   UNL     1      62.032  12.245   4.717  1.00  0.00    -0.206 F 
ENDROOT
BRANCH   1   9
HETATM    9  N   UNL     1      63.410   7.670   4.943  1.00  0.00    -0.399 N 
HETATM   10  H   UNL     1      63.431   7.721   5.925  1.00  0.00     0.156 HD
HETATM   11  H   UNL     1      63.675   6.839   4.486  1.00  0.00     0.156 HD
ENDBRANCH   1   9
TORSDOF 1
ENDMDL
MODEL 6
REMARK VINA RESULT:      -4.0      2.542      4.022
REMARK  1 active torsions:
REMARK  status: ('A' for Active; 'I' for Inactive)
REMARK    1  A    between atoms: C_1  and  N_7 
ROOT
HETATM    1  C   UNL     1      61.972   9.820   3.006  1.00  0.00     0.031 A 
HETATM    2  C   UNL     1      63.631   8.473   4.145  1.00  0.00     0.121 A 
HETATM    3  C   UNL     1      62.883  10.501   5.144  1.00  0.00     0.121 A 
HETATM    4  C   UNL     1      62.807   8.700   3.042  1.00  0.00     0.071 A 
HETATM    5  C   UNL     1      62.054  10.746   4.050  1.00  0.00     0.071 A 
HETATM    6  C   UNL     1      63.671   9.363   5.206  1.00  0.00     0.084 A 
HETATM    7  F   UNL     1      64.407   7.381   4.171  1.00  0.00    -0.206 F 
HETATM    8  F   UNL     1      62.928  11.390   6.144  1.00  0.00    -0.206 F 
ENDROOT
BRANCH   1   9
HETATM    9  N   UNL     1      61.250  10.125   1.847  1.00  0.00    -0.399 N 
HETATM   10  H   UNL     1      60.576   9.493   1.507  1.00  0.00     0.156 HD
HETATM   11  H   UNL     1      61.418  10.970   1.371  1.00  0.00     0.156 HD
ENDBRANCH   1   9
TORSDOF 1
ENDMDL
MODEL 7
REMARK VINA RESULT:      -4.0      2.532      3.066
REMARK  1 active torsions:
REMARK  status: ('A' for Active; 'I' for Inactive)
REMARK    1  A    between atoms: C_1  and  N_7 
ROOT
HETATM    1  C   UNL     1      62.044   9.745   2.894  1.00  0.00     0.031 A 
HETATM    2  C   UNL     1      62.844  10.481   5.057  1.00  0.00     0.121 A 
HETATM    3  C   UNL     1      63.642   8.429   4.150  1.00  0.00     0.121 A 
HETATM    4  C   UNL     1      62.024  10.666   3.944  1.00  0.00     0.071 A 
HETATM    5  C   UNL     1      62.828   8.596   3.030  1.00  0.00     0.071 A 
HETATM    6  C   UNL     1      63.664   9.370   5.167  1.00  0.00     0.084 A 
HETATM    7  F   UNL     1      62.828  11.389   6.042  1.00  0.00    -0.206 F 
HETATM    8  F   UNL     1      64.404   7.333   4.249  1.00  0.00    -0.206 F 
ENDROOT
BRANCH   1   9
HETATM    9  N   UNL     1      61.125   9.852   1.843  1.00  0.00    -0.399 N 
HETATM   10  H   UNL     1      60.967  10.724   1.416  1.00  0.00     0.156 HD
HETATM   11  H   UNL     1      60.637   9.055   1.534  1.00  0.00     0.156 HD
ENDBRANCH   1   9
TORSDOF 1
ENDMDL
MODEL 8
REMARK VINA RESULT:      -3.3     12.617     13.473
REMARK  1 active torsions:
REMARK  status: ('A' for Active; 'I' for Inactive)
REMARK    1  A    between atoms: C_1  and  N_7 
ROOT
HETATM    1  C   UNL     1      56.623   2.069  13.575  1.00  0.00     0.031 A 
HETATM    2  C   UNL     1      57.511   2.656  11.400  1.00  0.00     0.121 A 
HETATM    3  C   UNL     1      58.978   1.810  13.075  1.00  0.00     0.121 A 
HETATM    4  C   UNL     1      56.438   2.581  12.288  1.00  0.00     0.071 A 
HETATM    5  C   UNL     1      57.917   1.728  13.977  1.00  0.00     0.071 A 
HETATM    6  C   UNL     1      58.785   2.266  11.780  1.00  0.00     0.084 A 
HETATM    7  F   UNL     1      57.308   3.128  10.163  1.00  0.00    -0.206 F 
HETATM    8  F   UNL     1      60.206   1.456  13.473  1.00  0.00    -0.206 F 
ENDROOT
BRANCH   1   9
HETATM    9  N   UNL     1      55.584   2.121  14.511  1.00  0.00    -0.399 N 
HETATM   10  H   UNL     1      55.693   1.694  15.391  1.00  0.00     0.156 HD
HETATM   11  H   UNL     1      54.744   2.583  14.288  1.00  0.00     0.156 HD
ENDBRANCH   1   9
TORSDOF 1
ENDMDL
MODEL 9
REMARK VINA RESULT:      -3.3      6.785      7.263
REMARK  1 active torsions:
REMARK  status: ('A' for Active; 'I' for Inactive)
REMARK    1  A    between atoms: C_1  and  N_7 
ROOT
HETATM    1  C   UNL     1      66.756   5.315   7.614  1.00  0.00     0.031 A 
HETATM    2  C   UNL     1      66.892   7.573   6.751  1.00  0.00     0.121 A 
HETATM    3  C   UNL     1      67.327   5.736   5.299  1.00  0.00     0.121 A 
HETATM    4  C   UNL     1      66.687   6.697   7.816  1.00  0.00     0.071 A 
HETATM    5  C   UNL     1      67.127   4.844   6.352  1.00  0.00     0.071 A 
HETATM    6  C   UNL     1      67.205   7.104   5.485  1.00  0.00     0.084 A 
HETATM    7  F   UNL     1      66.798   8.893   6.959  1.00  0.00    -0.206 F 
HETATM    8  F   UNL     1      67.658   5.262   4.091  1.00  0.00    -0.206 F 
ENDROOT
BRANCH   1   9
HETATM    9  N   UNL     1      66.689   4.439   8.703  1.00  0.00    -0.399 N 
HETATM   10  H   UNL     1      67.205   4.630   9.520  1.00  0.00     0.156 HD
HETATM   11  H   UNL     1      66.128   3.633   8.652  1.00  0.00     0.156 HD
ENDBRANCH   1   9
TORSDOF 1
ENDMDL
