MODEL 1
REMARK VINA RESULT:      -3.9      0.000      0.000
REMARK  7 active torsions:
REMARK  status: ('A' for Active; 'I' for Inactive)
REMARK    1  A    between atoms: C_1  and  C_6 
REMARK    2  A    between atoms: C_3  and  C_10 
REMARK    3  A    between atoms: C_6  and  N_7 
REMARK    4  A    between atoms: S_8  and  C_10 
REMARK    5  A    between atoms: S_8  and  C_11 
REMARK    6  A    between atoms: N_9  and  C_14 
REMARK    7  A    between atoms: C_11  and  C_14 
ROOT
HETATM    1  C   UNL     1      62.933   9.154   5.008  1.00  0.00     0.079 A 
HETATM    2  O   UNL     1      62.616   9.087   3.680  1.00  0.00    -0.317 OA
HETATM    3  C   UNL     1      62.235  10.336   3.289  1.00  0.00     0.062 A 
HETATM    4  C   UNL     1      62.791  10.449   5.458  1.00  0.00     0.037 A 
HETATM    5  C   UNL     1      62.334  11.212   4.357  1.00  0.00     0.036 A 
ENDROOT
BRANCH   3   6
HETATM    6  C   UNL     1      61.748  10.467   1.893  1.00  0.00     0.139 C 
BRANCH   6   7
HETATM    7  S   UNL     1      61.930   8.959   0.897  1.00  0.00    -0.161 SA
BRANCH   7   8
HETATM    8  C   UNL     1      60.233   8.277   0.969  1.00  0.00     0.101 C 
BRANCH   8   9
HETATM    9  C   UNL     1      59.930   7.336   2.145  1.00  0.00     0.239 C 
BRANCH   9  10
HETATM   10  N   UNL     1      59.574   8.032   3.383  1.00  0.00    -0.079 N 
HETATM   11  H   UNL     1      58.686   8.517   3.257  1.00  0.00     0.274 HD
HETATM   12  H   UNL     1      60.302   8.708   3.614  1.00  0.00     0.274 HD
HETATM   13  H   UNL     1      59.487   7.354   4.140  1.00  0.00     0.274 HD
ENDBRANCH   9  10
ENDBRANCH   8   9
ENDBRANCH   7   8
ENDBRANCH   6   7
ENDBRANCH   3   6
BRANCH   1  14
HETATM   14  C   UNL     1      63.299   7.866   5.672  1.00  0.00     0.298 C 
BRANCH  14  15
HETATM   15  N   UNL     1      64.665   7.881   6.234  1.00  0.00    -0.073 N 
HETATM   16  C   UNL     1      64.962   6.637   6.953  1.00  0.00     0.269 C 
HETATM   17  C   UNL     1      65.644   8.068   5.160  1.00  0.00     0.269 C 
HETATM   18  H   UNL     1      64.723   8.655   6.894  1.00  0.00     0.279 HD
ENDBRANCH  14  15
ENDBRANCH   1  14
TORSDOF 7
ENDMDL
MODEL 2
REMARK VINA RESULT:      -3.8      2.609      4.257
REMARK  7 active torsions:
REMARK  status: ('A' for Active; 'I' for Inactive)
REMARK    1  A    between atoms: C_1  and  C_6 
REMARK    2  A    between atoms: C_3  and  C_10 
REMARK    3  A    between atoms: C_6  and  N_7 
REMARK    4  A    between atoms: S_8  and  C_10 
REMARK    5  A    between atoms: S_8  and  C_11 
REMARK    6  A    between atoms: N_9  and  C_14 
REMARK    7  A    between atoms: C_11  and  C_14 
ROOT
HETATM    1  C   UNL     1      66.260   7.000   7.133  1.00  0.00     0.079 A 
HETATM    2  O   UNL     1      65.113   7.619   6.724  1.00  0.00    -0.317 OA
HETATM    3  C   UNL     1      65.355   8.153   5.493  1.00  0.00     0.062 A 
HETATM    4  C   UNL     1      67.224   7.103   6.152  1.00  0.00     0.037 A 
HETATM    5  C   UNL     1      66.647   7.852   5.098  1.00  0.00     0.036 A 
ENDROOT
BRANCH   3   6
HETATM    6  C   UNL     1      64.261   8.965   4.902  1.00  0.00     0.139 C 
BRANCH   6   7
HETATM    7  S   UNL     1      63.232   8.068   3.705  1.00  0.00    -0.161 SA
BRANCH   7   8
HETATM    8  C   UNL     1      61.876   9.267   3.430  1.00  0.00     0.101 C 
BRANCH   8   9
HETATM    9  C   UNL     1      61.933  10.064   2.119  1.00  0.00     0.239 C 
BRANCH   9  10
HETATM   10  N   UNL     1      61.569  11.475   2.266  1.00  0.00    -0.079 N 
HETATM   11  H   UNL     1      62.250  12.054   1.775  1.00  0.00     0.274 HD
HETATM   12  H   UNL     1      61.562  11.722   3.256  1.00  0.00     0.274 HD
HETATM   13  H   UNL     1      60.643  11.630   1.870  1.00  0.00     0.274 HD
ENDBRANCH   9  10
ENDBRANCH   8   9
ENDBRANCH   7   8
ENDBRANCH   6   7
ENDBRANCH   3   6
BRANCH   1  14
HETATM   14  C   UNL     1      66.248   6.414   8.508  1.00  0.00     0.298 C 
BRANCH  14  15
HETATM   15  N   UNL     1      66.137   4.941   8.500  1.00  0.00    -0.073 N 
HETATM   16  C   UNL     1      65.408   4.465   7.320  1.00  0.00     0.269 C 
HETATM   17  C   UNL     1      67.473   4.339   8.523  1.00  0.00     0.269 C 
HETATM   18  H   UNL     1      65.618   4.662   9.332  1.00  0.00     0.279 HD
ENDBRANCH  14  15
ENDBRANCH   1  14
TORSDOF 7
ENDMDL
MODEL 3
REMARK VINA RESULT:      -3.7      2.203      5.864
REMARK  7 active torsions:
REMARK  status: ('A' for Active; 'I' for Inactive)
REMARK    1  A    between atoms: C_1  and  C_6 
REMARK    2  A    between atoms: C_3  and  C_10 
REMARK    3  A    between atoms: C_6  and  N_7 
REMARK    4  A    between atoms: S_8  and  C_10 
REMARK    5  A    between atoms: S_8  and  C_11 
REMARK    6  A    between atoms: N_9  and  C_14 
REMARK    7  A    between atoms: C_11  and  C_14 
ROOT
HETATM    1  C   UNL     1      62.210   9.467   3.062  1.00  0.00     0.079 A 
HETATM    2  O   UNL     1      63.133   8.602   3.577  1.00  0.00    -0.317 OA
HETATM    3  C   UNL     1      63.579   9.133   4.751  1.00  0.00     0.062 A 
HETATM    4  C   UNL     1      62.036  10.533   3.920  1.00  0.00     0.037 A 
HETATM    5  C   UNL     1      62.922  10.326   5.004  1.00  0.00     0.036 A 
ENDROOT
BRANCH   3   6
HETATM    6  C   UNL     1      64.672   8.395   5.432  1.00  0.00     0.139 C 
BRANCH   6   7
HETATM    7  S   UNL     1      64.134   6.876   6.269  1.00  0.00    -0.161 SA
BRANCH   7   8
HETATM    8  C   UNL     1      65.580   6.526   7.337  1.00  0.00     0.101 C 
BRANCH   8   9
HETATM    9  C   UNL     1      66.954   6.891   6.757  1.00  0.00     0.239 C 
BRANCH   9  10
HETATM   10  N   UNL     1      68.075   6.572   7.643  1.00  0.00    -0.079 N 
HETATM   11  H   UNL     1      68.912   7.056   7.319  1.00  0.00     0.274 HD
HETATM   12  H   UNL     1      68.239   5.565   7.634  1.00  0.00     0.274 HD
HETATM   13  H   UNL     1      67.854   6.873   8.592  1.00  0.00     0.274 HD
ENDBRANCH   9  10
ENDBRANCH   8   9
ENDBRANCH   7   8
ENDBRANCH   6   7
ENDBRANCH   3   6
BRANCH   1  14
HETATM   14  C   UNL     1      61.647   9.122   1.721  1.00  0.00     0.298 C 
BRANCH  14  15
HETATM   15  N   UNL     1      60.235   8.691   1.787  1.00  0.00    -0.073 N 
HETATM   16  C   UNL     1      59.772   8.174   0.496  1.00  0.00     0.269 C 
HETATM   17  C   UNL     1      60.077   7.656   2.812  1.00  0.00     0.269 C 
HETATM   18  H   UNL     1      59.671   9.505   2.028  1.00  0.00     0.279 HD
ENDBRANCH  14  15
ENDBRANCH   1  14
TORSDOF 7
ENDMDL
MODEL 4
REMARK VINA RESULT:      -3.6      2.025      3.064
REMARK  7 active torsions:
REMARK  status: ('A' for Active; 'I' for Inactive)
REMARK    1  A    between atoms: C_1  and  C_6 
REMARK    2  A    between atoms: C_3  and  C_10 
REMARK    3  A    between atoms: C_6  and  N_7 
REMARK    4  A    between atoms: S_8  and  C_10 
REMARK    5  A    between atoms: S_8  and  C_11 
REMARK    6  A    between atoms: N_9  and  C_14 
REMARK    7  A    between atoms: C_11  and  C_14 
ROOT
HETATM    1  C   UNL     1      65.909   8.018   5.456  1.00  0.00     0.079 A 
HETATM    2  O   UNL     1      65.010   9.005   5.750  1.00  0.00    -0.317 OA
HETATM    3  C   UNL     1      63.948   8.852   4.909  1.00  0.00     0.062 A 
HETATM    4  C   UNL     1      65.408   7.212   4.455  1.00  0.00     0.037 A 
HETATM    5  C   UNL     1      64.150   7.751   4.095  1.00  0.00     0.036 A 
ENDROOT
BRANCH   3   6
HETATM    6  C   UNL     1      62.891   9.892   4.991  1.00  0.00     0.139 C 
BRANCH   6   7
HETATM    7  S   UNL     1      62.010  10.181   3.430  1.00  0.00    -0.161 SA
BRANCH   7   8
HETATM    8  C   UNL     1      60.879   8.742   3.386  1.00  0.00     0.101 C 
BRANCH   8   9
HETATM    9  C   UNL     1      60.732   8.038   2.028  1.00  0.00     0.239 C 
BRANCH   9  10
HETATM   10  N   UNL     1      59.528   8.422   1.290  1.00  0.00    -0.079 N 
HETATM   11  H   UNL     1      58.758   8.559   1.944  1.00  0.00     0.274 HD
HETATM   12  H   UNL     1      59.286   7.685   0.627  1.00  0.00     0.274 HD
HETATM   13  H   UNL     1      59.702   9.290   0.784  1.00  0.00     0.274 HD
ENDBRANCH   9  10
ENDBRANCH   8   9
ENDBRANCH   7   8
ENDBRANCH   6   7
ENDBRANCH   3   6
BRANCH   1  14
HETATM   14  C   UNL     1      67.201   8.046   6.207  1.00  0.00     0.298 C 
BRANCH  14  15
HETATM   15  N   UNL     1      67.290   6.986   7.232  1.00  0.00    -0.073 N 
HETATM   16  C   UNL     1      65.981   6.714   7.837  1.00  0.00     0.269 C 
HETATM   17  C   UNL     1      67.814   5.755   6.632  1.00  0.00     0.269 C 
HETATM   18  H   UNL     1      67.921   7.310   7.963  1.00  0.00     0.279 HD
ENDBRANCH  14  15
ENDBRANCH   1  14
TORSDOF 7
ENDMDL
MODEL 5
REMARK VINA RESULT:      -3.5      2.930      5.805
REMARK  7 active torsions:
REMARK  status: ('A' for Active; 'I' for Inactive)
REMARK    1  A    between atoms: C_1  and  C_6 
REMARK    2  A    between atoms: C_3  and  C_10 
REMARK    3  A    between atoms: C_6  and  N_7 
REMARK    4  A    between atoms: S_8  and  C_10 
REMARK    5  A    between atoms: S_8  and  C_11 
REMARK    6  A    between atoms: N_9  and  C_14 
REMARK    7  A    between atoms: C_11  and  C_14 
ROOT
HETATM    1  C   UNL     1      63.537   7.711   4.083  1.00  0.00     0.079 A 
HETATM    2  O   UNL     1      64.850   7.632   4.457  1.00  0.00    -0.317 OA
HETATM    3  C   UNL     1      65.422   6.634   3.725  1.00  0.00     0.062 A 
HETATM    4  C   UNL     1      63.278   6.793   3.087  1.00  0.00     0.037 A 
HETATM    5  C   UNL     1      64.487   6.093   2.860  1.00  0.00     0.036 A 
ENDROOT
BRANCH   3   6
HETATM    6  C   UNL     1      66.834   6.310   4.049  1.00  0.00     0.139 C 
BRANCH   6   7
HETATM    7  S   UNL     1      67.596   7.431   5.256  1.00  0.00    -0.161 SA
BRANCH   7   8
HETATM    8  C   UNL     1      67.606   6.384   6.759  1.00  0.00     0.101 C 
BRANCH   8   9
HETATM    9  C   UNL     1      66.580   6.747   7.843  1.00  0.00     0.239 C 
BRANCH   9  10
HETATM   10  N   UNL     1      65.244   7.038   7.321  1.00  0.00    -0.079 N 
HETATM   11  H   UNL     1      65.106   6.538   6.443  1.00  0.00     0.274 HD
HETATM   12  H   UNL     1      65.153   8.041   7.160  1.00  0.00     0.274 HD
HETATM   13  H   UNL     1      64.542   6.737   7.996  1.00  0.00     0.274 HD
ENDBRANCH   9  10
ENDBRANCH   8   9
ENDBRANCH   7   8
ENDBRANCH   6   7
ENDBRANCH   3   6
BRANCH   1  14
HETATM   14  C   UNL     1      62.689   8.691   4.828  1.00  0.00     0.298 C 
BRANCH  14  15
HETATM   15  N   UNL     1      62.917  10.086   4.400  1.00  0.00    -0.073 N 
HETATM   16  C   UNL     1      61.895  10.527   3.445  1.00  0.00     0.269 C 
HETATM   17  C   UNL     1      62.911  10.974   5.565  1.00  0.00     0.269 C 
HETATM   18  H   UNL     1      63.826  10.127   3.939  1.00  0.00     0.279 HD
ENDBRANCH  14  15
ENDBRANCH   1  14
TORSDOF 7
ENDMDL
MODEL 6
REMARK VINA RESULT:      -3.5      3.065      6.149
REMARK  7 active torsions:
REMARK  status: ('A' for Active; 'I' for Inactive)
REMARK    1  A    between atoms: C_1  and  C_6 
REMARK    2  A    between atoms: C_3  and  C_10 
REMARK    3  A    between atoms: C_6  and  N_7 
REMARK    4  A    between atoms: S_8  and  C_10 
REMARK    5  A    between atoms: S_8  and  C_11 
REMARK    6  A    between atoms: N_9  and  C_14 
REMARK    7  A    between atoms: C_11  and  C_14 
ROOT
HETATM    1  C   UNL     1      63.395   8.325   4.528  1.00  0.00     0.079 A 
HETATM    2  O   UNL     1      64.731   8.492   4.763  1.00  0.00    -0.317 OA
HETATM    3  C   UNL     1      65.047   7.748   5.861  1.00  0.00     0.062 A 
HETATM    4  C   UNL     1      62.864   7.447   5.450  1.00  0.00     0.037 A 
HETATM    5  C   UNL     1      63.923   7.080   6.314  1.00  0.00     0.036 A 
ENDROOT
BRANCH   3   6
HETATM    6  C   UNL     1      66.442   7.867   6.355  1.00  0.00     0.139 C 
BRANCH   6   7
HETATM    7  S   UNL     1      67.464   6.396   6.058  1.00  0.00    -0.161 SA
BRANCH   7   8
HETATM    8  C   UNL     1      67.825   5.860   7.771  1.00  0.00     0.101 C 
BRANCH   8   9
HETATM    9  C   UNL     1      66.609   5.503   8.639  1.00  0.00     0.239 C 
BRANCH   9  10
HETATM   10  N   UNL     1      65.758   4.459   8.065  1.00  0.00    -0.079 N 
HETATM   11  H   UNL     1      66.205   3.550   8.189  1.00  0.00     0.274 HD
HETATM   12  H   UNL     1      65.623   4.639   7.070  1.00  0.00     0.274 HD
HETATM   13  H   UNL     1      64.855   4.459   8.538  1.00  0.00     0.274 HD
ENDBRANCH   9  10
ENDBRANCH   8   9
ENDBRANCH   7   8
ENDBRANCH   6   7
ENDBRANCH   3   6
BRANCH   1  14
HETATM   14  C   UNL     1      62.809   9.126   3.411  1.00  0.00     0.298 C 
BRANCH  14  15
HETATM   15  N   UNL     1      62.006  10.270   3.888  1.00  0.00    -0.073 N 
HETATM   16  C   UNL     1      62.655  10.947   5.016  1.00  0.00     0.269 C 
HETATM   17  C   UNL     1      61.803  11.227   2.797  1.00  0.00     0.269 C 
HETATM   18  H   UNL     1      61.106   9.910   4.204  1.00  0.00     0.279 HD
ENDBRANCH  14  15
ENDBRANCH   1  14
TORSDOF 7
ENDMDL
MODEL 7
REMARK VINA RESULT:      -3.3      2.898      3.719
REMARK  7 active torsions:
REMARK  status: ('A' for Active; 'I' for Inactive)
REMARK    1  A    between atoms: C_1  and  C_6 
REMARK    2  A    between atoms: C_3  and  C_10 
REMARK    3  A    between atoms: C_6  and  N_7 
REMARK    4  A    between atoms: S_8  and  C_10 
REMARK    5  A    between atoms: S_8  and  C_11 
REMARK    6  A    between atoms: N_9  and  C_14 
REMARK    7  A    between atoms: C_11  and  C_14 
ROOT
HETATM    1  C   UNL     1      65.398   7.787   6.138  1.00  0.00     0.079 A 
HETATM    2  O   UNL     1      64.339   7.070   6.621  1.00  0.00    -0.317 OA
HETATM    3  C   UNL     1      63.253   7.384   5.859  1.00  0.00     0.062 A 
HETATM    4  C   UNL     1      65.001   8.530   5.046  1.00  0.00     0.037 A 
HETATM    5  C   UNL     1      63.619   8.280   4.869  1.00  0.00     0.036 A 
ENDROOT
BRANCH   3   6
HETATM    6  C   UNL     1      61.961   6.787   6.280  1.00  0.00     0.139 C 
BRANCH   6   7
HETATM    7  S   UNL     1      61.471   5.324   5.322  1.00  0.00    -0.161 SA
BRANCH   7   8
HETATM    8  C   UNL     1      60.884   6.095   3.768  1.00  0.00     0.101 C 
BRANCH   8   9
HETATM    9  C   UNL     1      59.833   7.205   3.918  1.00  0.00     0.239 C 
BRANCH   9  10
HETATM   10  N   UNL     1      60.237   8.486   3.338  1.00  0.00    -0.079 N 
HETATM   11  H   UNL     1      61.014   8.337   2.694  1.00  0.00     0.274 HD
HETATM   12  H   UNL     1      60.529   9.120   4.082  1.00  0.00     0.274 HD
HETATM   13  H   UNL     1      59.451   8.893   2.832  1.00  0.00     0.274 HD
ENDBRANCH   9  10
ENDBRANCH   8   9
ENDBRANCH   7   8
ENDBRANCH   6   7
ENDBRANCH   3   6
BRANCH   1  14
HETATM   14  C   UNL     1      66.686   7.660   6.886  1.00  0.00     0.298 C 
BRANCH  14  15
HETATM   15  N   UNL     1      66.790   6.392   7.635  1.00  0.00    -0.073 N 
HETATM   16  C   UNL     1      67.881   5.555   7.123  1.00  0.00     0.269 C 
HETATM   17  C   UNL     1      67.015   6.668   9.056  1.00  0.00     0.269 C 
HETATM   18  H   UNL     1      65.914   5.885   7.515  1.00  0.00     0.279 HD
ENDBRANCH  14  15
ENDBRANCH   1  14
TORSDOF 7
ENDMDL
MODEL 8
REMARK VINA RESULT:      -3.3      2.346      5.979
REMARK  7 active torsions:
REMARK  status: ('A' for Active; 'I' for Inactive)
REMARK    1  A    between atoms: C_1  and  C_6 
REMARK    2  A    between atoms: C_3  and  C_10 
REMARK    3  A    between atoms: C_6  and  N_7 
REMARK    4  A    between atoms: S_8  and  C_10 
REMARK    5  A    between atoms: S_8  and  C_11 
REMARK    6  A    between atoms: N_9  and  C_14 
REMARK    7  A    between atoms: C_11  and  C_14 
ROOT
HETATM    1  C   UNL     1      60.872   7.873   3.257  1.00  0.00     0.079 A 
HETATM    2  O   UNL     1      61.841   7.761   4.214  1.00  0.00    -0.317 OA
HETATM    3  C   UNL     1      62.887   8.546   3.829  1.00  0.00     0.062 A 
HETATM    4  C   UNL     1      61.280   8.756   2.279  1.00  0.00     0.037 A 
HETATM    5  C   UNL     1      62.580   9.185   2.640  1.00  0.00     0.036 A 
ENDROOT
BRANCH   3   6
HETATM    6  C   UNL     1      64.098   8.491   4.685  1.00  0.00     0.139 C 
BRANCH   6   7
HETATM    7  S   UNL     1      64.080   7.156   5.915  1.00  0.00    -0.161 SA
BRANCH   7   8
HETATM    8  C   UNL     1      65.857   6.720   5.996  1.00  0.00     0.101 C 
BRANCH   8   9
HETATM    9  C   UNL     1      66.621   7.222   7.230  1.00  0.00     0.239 C 
BRANCH   9  10
HETATM   10  N   UNL     1      66.964   8.644   7.176  1.00  0.00    -0.079 N 
HETATM   11  H   UNL     1      66.555   9.060   6.340  1.00  0.00     0.274 HD
HETATM   12  H   UNL     1      67.979   8.748   7.147  1.00  0.00     0.274 HD
HETATM   13  H   UNL     1      66.597   9.113   8.003  1.00  0.00     0.274 HD
ENDBRANCH   9  10
ENDBRANCH   8   9
ENDBRANCH   7   8
ENDBRANCH   6   7
ENDBRANCH   3   6
BRANCH   1  14
HETATM   14  C   UNL     1      59.657   7.021   3.433  1.00  0.00     0.298 C 
BRANCH  14  15
HETATM   15  N   UNL     1      58.402   7.754   3.171  1.00  0.00    -0.073 N 
HETATM   16  C   UNL     1      57.769   7.305   1.926  1.00  0.00     0.269 C 
HETATM   17  C   UNL     1      57.470   7.565   4.286  1.00  0.00     0.269 C 
HETATM   18  H   UNL     1      58.631   8.743   3.075  1.00  0.00     0.279 HD
ENDBRANCH  14  15
ENDBRANCH   1  14
TORSDOF 7
ENDMDL
MODEL 9
REMARK VINA RESULT:      -3.2      2.645      6.082
REMARK  7 active torsions:
REMARK  status: ('A' for Active; 'I' for Inactive)
REMARK    1  A    between atoms: C_1  and  C_6 
REMARK    2  A    between atoms: C_3  and  C_10 
REMARK    3  A    between atoms: C_6  and  N_7 
REMARK    4  A    between atoms: S_8  and  C_10 
REMARK    5  A    between atoms: S_8  and  C_11 
REMARK    6  A    between atoms: N_9  and  C_14 
REMARK    7  A    between atoms: C_11  and  C_14 
ROOT
HETATM    1  C   UNL     1      62.227   8.491   3.785  1.00  0.00     0.079 A 
HETATM    2  O   UNL     1      63.297   7.649   3.901  1.00  0.00    -0.317 OA
HETATM    3  C   UNL     1      64.236   8.286   4.658  1.00  0.00     0.062 A 
HETATM    4  C   UNL     1      62.463   9.649   4.496  1.00  0.00     0.037 A 
HETATM    5  C   UNL     1      63.758   9.523   5.053  1.00  0.00     0.036 A 
ENDROOT
BRANCH   3   6
HETATM    6  C   UNL     1      65.531   7.581   4.826  1.00  0.00     0.139 C 
BRANCH   6   7
HETATM    7  S   UNL     1      66.416   8.005   6.353  1.00  0.00    -0.161 SA
BRANCH   7   8
HETATM    8  C   UNL     1      67.456   6.516   6.589  1.00  0.00     0.101 C 
BRANCH   8   9
HETATM    9  C   UNL     1      67.579   5.997   8.029  1.00  0.00     0.239 C 
BRANCH   9  10
HETATM   10  N   UNL     1      66.567   6.534   8.941  1.00  0.00    -0.079 N 
HETATM   11  H   UNL     1      65.711   5.987   8.858  1.00  0.00     0.274 HD
HETATM   12  H   UNL     1      66.374   7.507   8.700  1.00  0.00     0.274 HD
HETATM   13  H   UNL     1      66.911   6.483   9.899  1.00  0.00     0.274 HD
ENDBRANCH   9  10
ENDBRANCH   8   9
ENDBRANCH   7   8
ENDBRANCH   6   7
ENDBRANCH   3   6
BRANCH   1  14
HETATM   14  C   UNL     1      61.104   8.027   2.914  1.00  0.00     0.298 C 
BRANCH  14  15
HETATM   15  N   UNL     1      60.881   8.909   1.751  1.00  0.00    -0.073 N 
HETATM   16  C   UNL     1      62.111   9.092   0.973  1.00  0.00     0.269 C 
HETATM   17  C   UNL     1      59.839   8.344   0.889  1.00  0.00     0.269 C 
HETATM   18  H   UNL     1      60.584   9.820   2.101  1.00  0.00     0.279 HD
ENDBRANCH  14  15
ENDBRANCH   1  14
TORSDOF 7
ENDMDL
