MODEL 1
REMARK VINA RESULT:      -5.0      0.000      0.000
REMARK  3 active torsions:
REMARK  status: ('A' for Active; 'I' for Inactive)
REMARK    1  A    between atoms: C_1  and  C_3 
REMARK       I    between atoms: C_1  and  N_4 
REMARK    2  A    between atoms: C_3  and  C_5 
REMARK    3  A    between atoms: C_6  and  O_11 
ROOT
HETATM    1  C   UNL     1      62.389   8.858   3.786  1.00  0.00    -0.049 A 
HETATM    2  C   UNL     1      61.927  11.219   2.369  1.00  0.00     0.065 A 
HETATM    3  C   UNL     1      62.285  10.084   4.463  1.00  0.00     0.010 A 
HETATM    4  C   UNL     1      62.251   8.834   2.393  1.00  0.00     0.010 A 
HETATM    5  C   UNL     1      62.025  10.014   1.682  1.00  0.00     0.037 A 
HETATM    6  C   UNL     1      62.054  11.261   3.752  1.00  0.00     0.037 A 
ENDROOT
BRANCH   1   7
HETATM    7  C   UNL     1      62.588   7.570   4.554  1.00  0.00     0.141 C 
BRANCH   7   8
HETATM    8  C   UNL     1      63.198   7.741   5.935  1.00  0.00     0.219 C 
HETATM    9  O   UNL     1      62.525   7.710   6.962  1.00  0.00    -0.273 OA
HETATM   10  N   UNL     1      64.556   7.845   6.010  1.00  0.00    -0.370 N 
HETATM   11  H   UNL     1      64.994   7.958   6.885  1.00  0.00     0.159 HD
HETATM   12  H   UNL     1      65.098   7.810   5.189  1.00  0.00     0.159 HD
ENDBRANCH   7   8
ENDBRANCH   1   7
BRANCH   2  13
HETATM   13  O   UNL     1      61.703  12.393   1.714  1.00  0.00    -0.361 OA
HETATM   14  H   UNL     1      61.190  13.064   2.120  1.00  0.00     0.217 HD
ENDBRANCH   2  13
TORSDOF 3
ENDMDL
MODEL 2
REMARK VINA RESULT:      -4.9      3.025      4.121
REMARK  3 active torsions:
REMARK  status: ('A' for Active; 'I' for Inactive)
REMARK    1  A    between atoms: C_1  and  C_3 
REMARK       I    between atoms: C_1  and  N_4 
REMARK    2  A    between atoms: C_3  and  C_5 
REMARK    3  A    between atoms: C_6  and  O_11 
ROOT
HETATM    1  C   UNL     1      62.199   9.713   2.587  1.00  0.00    -0.049 A 
HETATM    2  C   UNL     1      62.793  10.557   5.182  1.00  0.00     0.065 A 
HETATM    3  C   UNL     1      61.844  11.003   3.014  1.00  0.00     0.010 A 
HETATM    4  C   UNL     1      62.862   8.860   3.476  1.00  0.00     0.010 A 
HETATM    5  C   UNL     1      63.156   9.278   4.776  1.00  0.00     0.037 A 
HETATM    6  C   UNL     1      62.142  11.421   4.310  1.00  0.00     0.037 A 
ENDROOT
BRANCH   1   7
HETATM    7  C   UNL     1      61.926   9.271   1.167  1.00  0.00     0.141 C 
BRANCH   7   8
HETATM    8  C   UNL     1      60.855   8.201   1.030  1.00  0.00     0.219 C 
HETATM    9  O   UNL     1      61.125   7.005   0.943  1.00  0.00    -0.273 OA
HETATM   10  N   UNL     1      59.555   8.606   1.095  1.00  0.00    -0.370 N 
HETATM   11  H   UNL     1      58.829   7.946   1.010  1.00  0.00     0.159 HD
HETATM   12  H   UNL     1      59.342   9.558   1.225  1.00  0.00     0.159 HD
ENDBRANCH   7   8
ENDBRANCH   1   7
BRANCH   2  13
HETATM   13  O   UNL     1      63.064  11.007   6.439  1.00  0.00    -0.361 OA
HETATM   14  H   UNL     1      62.508  10.765   7.153  1.00  0.00     0.217 HD
ENDBRANCH   2  13
TORSDOF 3
ENDMDL
MODEL 3
REMARK VINA RESULT:      -4.9      1.628      2.231
REMARK  3 active torsions:
REMARK  status: ('A' for Active; 'I' for Inactive)
REMARK    1  A    between atoms: C_1  and  C_3 
REMARK       I    between atoms: C_1  and  N_4 
REMARK    2  A    between atoms: C_3  and  C_5 
REMARK    3  A    between atoms: C_6  and  O_11 
ROOT
HETATM    1  C   UNL     1      63.185   8.952   4.550  1.00  0.00    -0.049 A 
HETATM    2  C   UNL     1      61.901  10.824   2.923  1.00  0.00     0.065 A 
HETATM    3  C   UNL     1      62.871   8.639   3.217  1.00  0.00     0.010 A 
HETATM    4  C   UNL     1      62.853  10.216   5.049  1.00  0.00     0.010 A 
HETATM    5  C   UNL     1      62.206  11.152   4.239  1.00  0.00     0.037 A 
HETATM    6  C   UNL     1      62.230   9.576   2.407  1.00  0.00     0.037 A 
ENDROOT
BRANCH   1   7
HETATM    7  C   UNL     1      63.926   7.961   5.418  1.00  0.00     0.141 C 
BRANCH   7   8
HETATM    8  C   UNL     1      65.427   8.181   5.496  1.00  0.00     0.219 C 
HETATM    9  O   UNL     1      65.939   8.966   6.290  1.00  0.00    -0.273 OA
HETATM   10  N   UNL     1      66.215   7.401   4.701  1.00  0.00    -0.370 N 
HETATM   11  H   UNL     1      67.194   7.511   4.719  1.00  0.00     0.159 HD
HETATM   12  H   UNL     1      65.805   6.730   4.109  1.00  0.00     0.159 HD
ENDBRANCH   7   8
ENDBRANCH   1   7
BRANCH   2  13
HETATM   13  O   UNL     1      61.274  11.708   2.097  1.00  0.00    -0.361 OA
HETATM   14  H   UNL     1      61.563  12.598   2.059  1.00  0.00     0.217 HD
ENDBRANCH   2  13
TORSDOF 3
ENDMDL
MODEL 4
REMARK VINA RESULT:      -4.8      1.907      2.043
REMARK  3 active torsions:
REMARK  status: ('A' for Active; 'I' for Inactive)
REMARK    1  A    between atoms: C_1  and  C_3 
REMARK       I    between atoms: C_1  and  N_4 
REMARK    2  A    between atoms: C_3  and  C_5 
REMARK    3  A    between atoms: C_6  and  O_11 
ROOT
HETATM    1  C   UNL     1      63.520   8.658   4.710  1.00  0.00    -0.049 A 
HETATM    2  C   UNL     1      62.001  10.542   3.316  1.00  0.00     0.065 A 
HETATM    3  C   UNL     1      63.196   9.890   5.303  1.00  0.00     0.010 A 
HETATM    4  C   UNL     1      63.065   8.385   3.415  1.00  0.00     0.010 A 
HETATM    5  C   UNL     1      62.310   9.327   2.714  1.00  0.00     0.037 A 
HETATM    6  C   UNL     1      62.437  10.828   4.603  1.00  0.00     0.037 A 
ENDROOT
BRANCH   1   7
HETATM    7  C   UNL     1      64.298   7.616   5.480  1.00  0.00     0.141 C 
BRANCH   7   8
HETATM    8  C   UNL     1      65.739   7.992   5.782  1.00  0.00     0.219 C 
HETATM    9  O   UNL     1      66.464   8.544   4.957  1.00  0.00    -0.273 OA
HETATM   10  N   UNL     1      66.189   7.773   7.050  1.00  0.00    -0.370 N 
HETATM   11  H   UNL     1      67.117   8.002   7.289  1.00  0.00     0.159 HD
HETATM   12  H   UNL     1      65.588   7.386   7.726  1.00  0.00     0.159 HD
ENDBRANCH   7   8
ENDBRANCH   1   7
BRANCH   2  13
HETATM   13  O   UNL     1      61.263  11.488   2.669  1.00  0.00    -0.361 OA
HETATM   14  H   UNL     1      60.748  11.250   1.923  1.00  0.00     0.217 HD
ENDBRANCH   2  13
TORSDOF 3
ENDMDL
MODEL 5
REMARK VINA RESULT:      -4.5      3.021      3.688
REMARK  3 active torsions:
REMARK  status: ('A' for Active; 'I' for Inactive)
REMARK    1  A    between atoms: C_1  and  C_3 
REMARK       I    between atoms: C_1  and  N_4 
REMARK    2  A    between atoms: C_3  and  C_5 
REMARK    3  A    between atoms: C_6  and  O_11 
ROOT
HETATM    1  C   UNL     1      61.959   9.209   3.704  1.00  0.00    -0.049 A 
HETATM    2  C   UNL     1      63.538  10.655   5.497  1.00  0.00     0.065 A 
HETATM    3  C   UNL     1      63.046   8.596   4.348  1.00  0.00     0.010 A 
HETATM    4  C   UNL     1      61.673  10.552   3.978  1.00  0.00     0.010 A 
HETATM    5  C   UNL     1      62.465  11.278   4.870  1.00  0.00     0.037 A 
HETATM    6  C   UNL     1      63.832   9.321   5.244  1.00  0.00     0.037 A 
ENDROOT
BRANCH   1   7
HETATM    7  C   UNL     1      61.071   8.417   2.772  1.00  0.00     0.141 C 
BRANCH   7   8
HETATM    8  C   UNL     1      60.029   7.555   3.466  1.00  0.00     0.219 C 
HETATM    9  O   UNL     1      60.284   6.437   3.907  1.00  0.00    -0.273 OA
HETATM   10  N   UNL     1      58.797   8.105   3.666  1.00  0.00    -0.370 N 
HETATM   11  H   UNL     1      58.091   7.582   4.112  1.00  0.00     0.159 HD
HETATM   12  H   UNL     1      58.613   9.024   3.365  1.00  0.00     0.159 HD
ENDBRANCH   7   8
ENDBRANCH   1   7
BRANCH   2  13
HETATM   13  O   UNL     1      64.333  11.326   6.378  1.00  0.00    -0.361 OA
HETATM   14  H   UNL     1      63.993  12.059   6.851  1.00  0.00     0.217 HD
ENDBRANCH   2  13
TORSDOF 3
ENDMDL
MODEL 6
REMARK VINA RESULT:      -4.2      1.475      1.557
REMARK  3 active torsions:
REMARK  status: ('A' for Active; 'I' for Inactive)
REMARK    1  A    between atoms: C_1  and  C_3 
REMARK       I    between atoms: C_1  and  N_4 
REMARK    2  A    between atoms: C_3  and  C_5 
REMARK    3  A    between atoms: C_6  and  O_11 
ROOT
HETATM    1  C   UNL     1      63.166   8.964   4.638  1.00  0.00    -0.049 A 
HETATM    2  C   UNL     1      61.912  10.784   2.932  1.00  0.00     0.065 A 
HETATM    3  C   UNL     1      62.840  10.253   5.090  1.00  0.00     0.010 A 
HETATM    4  C   UNL     1      62.848   8.601   3.324  1.00  0.00     0.010 A 
HETATM    5  C   UNL     1      62.225   9.511   2.468  1.00  0.00     0.037 A 
HETATM    6  C   UNL     1      62.213  11.159   4.235  1.00  0.00     0.037 A 
ENDROOT
BRANCH   1   7
HETATM    7  C   UNL     1      63.799   7.958   5.574  1.00  0.00     0.141 C 
BRANCH   7   8
HETATM    8  C   UNL     1      63.029   6.656   5.723  1.00  0.00     0.219 C 
HETATM    9  O   UNL     1      63.490   5.573   5.369  1.00  0.00    -0.273 OA
HETATM   10  N   UNL     1      61.822   6.713   6.353  1.00  0.00    -0.370 N 
HETATM   11  H   UNL     1      61.289   5.893   6.471  1.00  0.00     0.159 HD
HETATM   12  H   UNL     1      61.481   7.573   6.689  1.00  0.00     0.159 HD
ENDBRANCH   7   8
ENDBRANCH   1   7
BRANCH   2  13
HETATM   13  O   UNL     1      61.301  11.701   2.131  1.00  0.00    -0.361 OA
HETATM   14  H   UNL     1      60.366  11.746   2.100  1.00  0.00     0.217 HD
ENDBRANCH   2  13
TORSDOF 3
ENDMDL
MODEL 7
REMARK VINA RESULT:      -4.1      2.771      3.279
REMARK  3 active torsions:
REMARK  status: ('A' for Active; 'I' for Inactive)
REMARK    1  A    between atoms: C_1  and  C_3 
REMARK       I    between atoms: C_1  and  N_4 
REMARK    2  A    between atoms: C_3  and  C_5 
REMARK    3  A    between atoms: C_6  and  O_11 
ROOT
HETATM    1  C   UNL     1      63.204   8.497   3.730  1.00  0.00    -0.049 A 
HETATM    2  C   UNL     1      62.334  11.076   4.356  1.00  0.00     0.065 A 
HETATM    3  C   UNL     1      62.383   9.206   2.838  1.00  0.00     0.010 A 
HETATM    4  C   UNL     1      63.586   9.102   4.933  1.00  0.00     0.010 A 
HETATM    5  C   UNL     1      63.148  10.390   5.250  1.00  0.00     0.037 A 
HETATM    6  C   UNL     1      61.951  10.494   3.154  1.00  0.00     0.037 A 
ENDROOT
BRANCH   1   7
HETATM    7  C   UNL     1      63.719   7.121   3.373  1.00  0.00     0.141 C 
BRANCH   7   8
HETATM    8  C   UNL     1      62.941   6.416   2.275  1.00  0.00     0.219 C 
HETATM    9  O   UNL     1      63.311   6.412   1.103  1.00  0.00    -0.273 OA
HETATM   10  N   UNL     1      61.843   5.700   2.648  1.00  0.00    -0.370 N 
HETATM   11  H   UNL     1      61.309   5.227   1.969  1.00  0.00     0.159 HD
HETATM   12  H   UNL     1      61.583   5.656   3.597  1.00  0.00     0.159 HD
ENDBRANCH   7   8
ENDBRANCH   1   7
BRANCH   2  13
HETATM   13  O   UNL     1      61.888  12.335   4.624  1.00  0.00    -0.361 OA
HETATM   14  H   UNL     1      62.472  13.064   4.550  1.00  0.00     0.217 HD
ENDBRANCH   2  13
TORSDOF 3
ENDMDL
MODEL 8
REMARK VINA RESULT:      -3.9      2.560      4.574
REMARK  3 active torsions:
REMARK  status: ('A' for Active; 'I' for Inactive)
REMARK    1  A    between atoms: C_1  and  C_3 
REMARK       I    between atoms: C_1  and  N_4 
REMARK    2  A    between atoms: C_3  and  C_5 
REMARK    3  A    between atoms: C_6  and  O_11 
ROOT
HETATM    1  C   UNL     1      62.537   8.378   4.109  1.00  0.00    -0.049 A 
HETATM    2  C   UNL     1      64.662   6.789   4.979  1.00  0.00     0.065 A 
HETATM    3  C   UNL     1      62.733   8.142   5.480  1.00  0.00     0.010 A 
HETATM    4  C   UNL     1      63.424   7.812   3.186  1.00  0.00     0.010 A 
HETATM    5  C   UNL     1      64.485   7.013   3.619  1.00  0.00     0.037 A 
HETATM    6  C   UNL     1      63.796   7.349   5.911  1.00  0.00     0.037 A 
ENDROOT
BRANCH   1   7
HETATM    7  C   UNL     1      61.418   9.278   3.637  1.00  0.00     0.141 C 
BRANCH   7   8
HETATM    8  C   UNL     1      61.788  10.748   3.528  1.00  0.00     0.219 C 
HETATM    9  O   UNL     1      62.185  11.402   4.490  1.00  0.00    -0.273 OA
HETATM   10  N   UNL     1      61.749  11.312   2.288  1.00  0.00    -0.370 N 
HETATM   11  H   UNL     1      61.980  12.262   2.171  1.00  0.00     0.159 HD
HETATM   12  H   UNL     1      61.488  10.770   1.508  1.00  0.00     0.159 HD
ENDBRANCH   7   8
ENDBRANCH   1   7
BRANCH   2  13
HETATM   13  O   UNL     1      65.686   6.020   5.445  1.00  0.00    -0.361 OA
HETATM   14  H   UNL     1      66.542   6.388   5.540  1.00  0.00     0.217 HD
ENDBRANCH   2  13
TORSDOF 3
ENDMDL
MODEL 9
REMARK VINA RESULT:      -3.8     12.250     13.517
REMARK  3 active torsions:
REMARK  status: ('A' for Active; 'I' for Inactive)
REMARK    1  A    between atoms: C_1  and  C_3 
REMARK       I    between atoms: C_1  and  N_4 
REMARK    2  A    between atoms: C_3  and  C_5 
REMARK    3  A    between atoms: C_6  and  O_11 
ROOT
HETATM    1  C   UNL     1      56.324   2.484  12.719  1.00  0.00    -0.049 A 
HETATM    2  C   UNL     1      58.982   1.717  13.094  1.00  0.00     0.065 A 
HETATM    3  C   UNL     1      57.285   2.743  11.728  1.00  0.00     0.010 A 
HETATM    4  C   UNL     1      56.715   1.830  13.893  1.00  0.00     0.010 A 
HETATM    5  C   UNL     1      58.045   1.450  14.085  1.00  0.00     0.037 A 
HETATM    6  C   UNL     1      58.612   2.358  11.919  1.00  0.00     0.037 A 
ENDROOT
BRANCH   1   7
HETATM    7  C   UNL     1      54.874   2.851  12.499  1.00  0.00     0.141 C 
BRANCH   7   8
HETATM    8  C   UNL     1      54.255   3.689  13.605  1.00  0.00     0.219 C 
HETATM    9  O   UNL     1      54.496   4.887  13.739  1.00  0.00    -0.273 OA
HETATM   10  N   UNL     1      53.337   3.082  14.409  1.00  0.00    -0.370 N 
HETATM   11  H   UNL     1      52.911   3.587  15.139  1.00  0.00     0.159 HD
HETATM   12  H   UNL     1      53.101   2.137  14.262  1.00  0.00     0.159 HD
ENDBRANCH   7   8
ENDBRANCH   1   7
BRANCH   2  13
HETATM   13  O   UNL     1      60.290   1.359  13.238  1.00  0.00    -0.361 OA
HETATM   14  H   UNL     1      60.949   1.778  12.721  1.00  0.00     0.217 HD
ENDBRANCH   2  13
TORSDOF 3
ENDMDL
