MODEL 1
REMARK VINA RESULT:      -5.5      0.000      0.000
REMARK  1 active torsions:
REMARK  status: ('A' for Active; 'I' for Inactive)
REMARK    1  A    between atoms: C_1  and  C_4 
ROOT
HETATM    1  C   UNL     1      62.932   9.251   4.878  1.00  0.00     0.082 A 
HETATM    2  C   UNL     1      62.659  10.601   5.114  1.00  0.00     0.174 A 
HETATM    3  C   UNL     1      62.146  11.398   4.095  1.00  0.00     0.194 A 
HETATM    4  C   UNL     1      62.689   8.715   3.601  1.00  0.00     0.025 A 
HETATM    5  C   UNL     1      61.903  10.858   2.839  1.00  0.00     0.158 A 
HETATM    6  C   UNL     1      62.174   9.520   2.581  1.00  0.00     0.047 A 
HETATM    7  F   UNL     1      62.879  11.169   6.310  1.00  0.00    -0.202 F 
HETATM    8  F   UNL     1      61.882  12.693   4.327  1.00  0.00    -0.200 F 
HETATM    9  F   UNL     1      61.405  11.625   1.860  1.00  0.00    -0.203 F 
ENDROOT
BRANCH   1  10
HETATM   10  C   UNL     1      63.464   8.338   5.913  1.00  0.00     0.212 C 
HETATM   11  O   UNL     1      62.781   7.728   6.717  1.00  0.00    -0.644 OA
HETATM   12  O   UNL     1      64.799   8.227   5.914  1.00  0.00    -0.644 OA
ENDBRANCH   1  10
TORSDOF 1
ENDMDL
MODEL 2
REMARK VINA RESULT:      -5.2      1.568      2.590
REMARK  1 active torsions:
REMARK  status: ('A' for Active; 'I' for Inactive)
REMARK    1  A    between atoms: C_1  and  C_4 
ROOT
HETATM    1  C   UNL     1      62.983   9.125   4.564  1.00  0.00     0.082 A 
HETATM    2  C   UNL     1      62.755   8.791   3.227  1.00  0.00     0.174 A 
HETATM    3  C   UNL     1      62.217   9.732   2.354  1.00  0.00     0.194 A 
HETATM    4  C   UNL     1      62.656  10.417   5.015  1.00  0.00     0.025 A 
HETATM    5  C   UNL     1      61.902  11.007   2.806  1.00  0.00     0.158 A 
HETATM    6  C   UNL     1      62.115  11.358   4.134  1.00  0.00     0.047 A 
HETATM    7  F   UNL     1      63.040   7.572   2.744  1.00  0.00    -0.202 F 
HETATM    8  F   UNL     1      62.003   9.408   1.070  1.00  0.00    -0.200 F 
HETATM    9  F   UNL     1      61.388  11.913   1.964  1.00  0.00    -0.203 F 
ENDROOT
BRANCH   1  10
HETATM   10  C   UNL     1      63.565   8.186   5.548  1.00  0.00     0.212 C 
HETATM   11  O   UNL     1      64.634   7.616   5.415  1.00  0.00    -0.644 OA
HETATM   12  O   UNL     1      62.806   7.988   6.634  1.00  0.00    -0.644 OA
ENDBRANCH   1  10
TORSDOF 1
ENDMDL
MODEL 3
REMARK VINA RESULT:      -5.1      1.534      1.897
REMARK  1 active torsions:
REMARK  status: ('A' for Active; 'I' for Inactive)
REMARK    1  A    between atoms: C_1  and  C_4 
ROOT
HETATM    1  C   UNL     1      62.599   8.725   3.289  1.00  0.00     0.082 A 
HETATM    2  C   UNL     1      62.478   9.839   4.123  1.00  0.00     0.174 A 
HETATM    3  C   UNL     1      62.084  11.066   3.597  1.00  0.00     0.194 A 
HETATM    4  C   UNL     1      62.326   8.862   1.916  1.00  0.00     0.025 A 
HETATM    5  C   UNL     1      61.811  11.191   2.241  1.00  0.00     0.158 A 
HETATM    6  C   UNL     1      61.932  10.096   1.392  1.00  0.00     0.047 A 
HETATM    7  F   UNL     1      62.734   9.768   5.438  1.00  0.00    -0.202 F 
HETATM    8  F   UNL     1      61.966  12.132   4.402  1.00  0.00    -0.200 F 
HETATM    9  F   UNL     1      61.428  12.371   1.736  1.00  0.00    -0.203 F 
ENDROOT
BRANCH   1  10
HETATM   10  C   UNL     1      62.998   7.386   3.775  1.00  0.00     0.212 C 
HETATM   11  O   UNL     1      63.999   6.789   3.421  1.00  0.00    -0.644 OA
HETATM   12  O   UNL     1      62.149   6.848   4.661  1.00  0.00    -0.644 OA
ENDBRANCH   1  10
TORSDOF 1
ENDMDL
MODEL 4
REMARK VINA RESULT:      -5.0      2.010      3.329
REMARK  1 active torsions:
REMARK  status: ('A' for Active; 'I' for Inactive)
REMARK    1  A    between atoms: C_1  and  C_4 
ROOT
HETATM    1  C   UNL     1      62.511   8.758   2.952  1.00  0.00     0.082 A 
HETATM    2  C   UNL     1      62.082   9.775   2.095  1.00  0.00     0.174 A 
HETATM    3  C   UNL     1      61.881  11.062   2.584  1.00  0.00     0.194 A 
HETATM    4  C   UNL     1      62.729   9.052   4.310  1.00  0.00     0.025 A 
HETATM    5  C   UNL     1      62.104  11.344   3.925  1.00  0.00     0.158 A 
HETATM    6  C   UNL     1      62.525  10.346   4.797  1.00  0.00     0.047 A 
HETATM    7  F   UNL     1      61.850   9.550   0.793  1.00  0.00    -0.202 F 
HETATM    8  F   UNL     1      61.473  12.035   1.756  1.00  0.00    -0.200 F 
HETATM    9  F   UNL     1      61.916  12.585   4.393  1.00  0.00    -0.203 F 
ENDROOT
BRANCH   1  10
HETATM   10  C   UNL     1      62.759   7.370   2.505  1.00  0.00     0.212 C 
HETATM   11  O   UNL     1      63.854   6.837   2.476  1.00  0.00    -0.644 OA
HETATM   12  O   UNL     1      61.660   6.714   2.112  1.00  0.00    -0.644 OA
ENDBRANCH   1  10
TORSDOF 1
ENDMDL
MODEL 5
REMARK VINA RESULT:      -4.7      3.103      4.063
REMARK  1 active torsions:
REMARK  status: ('A' for Active; 'I' for Inactive)
REMARK    1  A    between atoms: C_1  and  C_4 
ROOT
HETATM    1  C   UNL     1      62.080   9.909   3.900  1.00  0.00     0.082 A 
HETATM    2  C   UNL     1      63.004   9.477   4.855  1.00  0.00     0.174 A 
HETATM    3  C   UNL     1      63.061   8.134   5.215  1.00  0.00     0.194 A 
HETATM    4  C   UNL     1      61.208   8.973   3.316  1.00  0.00     0.025 A 
HETATM    5  C   UNL     1      62.199   7.216   4.629  1.00  0.00     0.158 A 
HETATM    6  C   UNL     1      61.268   7.625   3.682  1.00  0.00     0.047 A 
HETATM    7  F   UNL     1      63.854  10.328   5.450  1.00  0.00    -0.202 F 
HETATM    8  F   UNL     1      63.952   7.724   6.129  1.00  0.00    -0.200 F 
HETATM    9  F   UNL     1      62.258   5.923   4.973  1.00  0.00    -0.203 F 
ENDROOT
BRANCH   1  10
HETATM   10  C   UNL     1      61.969  11.315   3.455  1.00  0.00     0.212 C 
HETATM   11  O   UNL     1      62.013  11.681   2.294  1.00  0.00    -0.644 OA
HETATM   12  O   UNL     1      61.818  12.197   4.452  1.00  0.00    -0.644 OA
ENDBRANCH   1  10
TORSDOF 1
ENDMDL
MODEL 6
REMARK VINA RESULT:      -4.6      2.257      2.973
REMARK  1 active torsions:
REMARK  status: ('A' for Active; 'I' for Inactive)
REMARK    1  A    between atoms: C_1  and  C_4 
ROOT
HETATM    1  C   UNL     1      63.719   8.661   4.447  1.00  0.00     0.082 A 
HETATM    2  C   UNL     1      63.549   7.952   3.255  1.00  0.00     0.174 A 
HETATM    3  C   UNL     1      62.666   8.418   2.286  1.00  0.00     0.194 A 
HETATM    4  C   UNL     1      62.984   9.842   4.655  1.00  0.00     0.025 A 
HETATM    5  C   UNL     1      61.947   9.587   2.497  1.00  0.00     0.158 A 
HETATM    6  C   UNL     1      62.097  10.305   3.678  1.00  0.00     0.047 A 
HETATM    7  F   UNL     1      64.218   6.816   3.007  1.00  0.00    -0.202 F 
HETATM    8  F   UNL     1      62.508   7.735   1.142  1.00  0.00    -0.200 F 
HETATM    9  F   UNL     1      61.101  10.037   1.561  1.00  0.00    -0.203 F 
ENDROOT
BRANCH   1  10
HETATM   10  C   UNL     1      64.649   8.239   5.518  1.00  0.00     0.212 C 
HETATM   11  O   UNL     1      64.324   7.611   6.510  1.00  0.00    -0.644 OA
HETATM   12  O   UNL     1      65.920   8.614   5.321  1.00  0.00    -0.644 OA
ENDBRANCH   1  10
TORSDOF 1
ENDMDL
MODEL 7
REMARK VINA RESULT:      -4.5      3.397      4.640
REMARK  1 active torsions:
REMARK  status: ('A' for Active; 'I' for Inactive)
REMARK    1  A    between atoms: C_1  and  C_4 
ROOT
HETATM    1  C   UNL     1      62.140   9.855   3.109  1.00  0.00     0.082 A 
HETATM    2  C   UNL     1      61.587   8.962   2.187  1.00  0.00     0.174 A 
HETATM    3  C   UNL     1      61.806   7.594   2.322  1.00  0.00     0.194 A 
HETATM    4  C   UNL     1      62.923   9.354   4.165  1.00  0.00     0.025 A 
HETATM    5  C   UNL     1      62.575   7.108   3.371  1.00  0.00     0.158 A 
HETATM    6  C   UNL     1      63.140   7.979   4.296  1.00  0.00     0.047 A 
HETATM    7  F   UNL     1      60.840   9.384   1.156  1.00  0.00    -0.202 F 
HETATM    8  F   UNL     1      61.270   6.741   1.436  1.00  0.00    -0.200 F 
HETATM    9  F   UNL     1      62.781   5.791   3.502  1.00  0.00    -0.203 F 
ENDROOT
BRANCH   1  10
HETATM   10  C   UNL     1      61.941  11.319   3.042  1.00  0.00     0.212 C 
HETATM   11  O   UNL     1      61.889  11.965   2.010  1.00  0.00    -0.644 OA
HETATM   12  O   UNL     1      61.825  11.913   4.237  1.00  0.00    -0.644 OA
ENDBRANCH   1  10
TORSDOF 1
ENDMDL
MODEL 8
REMARK VINA RESULT:      -4.4      1.809      2.330
REMARK  1 active torsions:
REMARK  status: ('A' for Active; 'I' for Inactive)
REMARK    1  A    between atoms: C_1  and  C_4 
ROOT
HETATM    1  C   UNL     1      64.254   8.059   4.842  1.00  0.00     0.082 A 
HETATM    2  C   UNL     1      63.438   9.160   4.569  1.00  0.00     0.174 A 
HETATM    3  C   UNL     1      62.684   9.198   3.400  1.00  0.00     0.194 A 
HETATM    4  C   UNL     1      64.308   6.999   3.920  1.00  0.00     0.025 A 
HETATM    5  C   UNL     1      62.739   8.144   2.498  1.00  0.00     0.158 A 
HETATM    6  C   UNL     1      63.549   7.042   2.746  1.00  0.00     0.047 A 
HETATM    7  F   UNL     1      63.355  10.203   5.409  1.00  0.00    -0.202 F 
HETATM    8  F   UNL     1      61.900  10.255   3.144  1.00  0.00    -0.200 F 
HETATM    9  F   UNL     1      62.009   8.179   1.375  1.00  0.00    -0.203 F 
ENDROOT
BRANCH   1  10
HETATM   10  C   UNL     1      65.073   7.939   6.069  1.00  0.00     0.212 C 
HETATM   11  O   UNL     1      64.901   7.103   6.938  1.00  0.00    -0.644 OA
HETATM   12  O   UNL     1      66.049   8.851   6.169  1.00  0.00    -0.644 OA
ENDBRANCH   1  10
TORSDOF 1
ENDMDL
MODEL 9
REMARK VINA RESULT:      -4.2      3.031      3.755
REMARK  1 active torsions:
REMARK  status: ('A' for Active; 'I' for Inactive)
REMARK    1  A    between atoms: C_1  and  C_4 
ROOT
HETATM    1  C   UNL     1      62.662   9.380   4.524  1.00  0.00     0.082 A 
HETATM    2  C   UNL     1      62.511   8.165   5.197  1.00  0.00     0.174 A 
HETATM    3  C   UNL     1      62.183   7.012   4.491  1.00  0.00     0.194 A 
HETATM    4  C   UNL     1      62.471   9.422   3.131  1.00  0.00     0.025 A 
HETATM    5  C   UNL     1      62.001   7.061   3.115  1.00  0.00     0.158 A 
HETATM    6  C   UNL     1      62.140   8.260   2.427  1.00  0.00     0.047 A 
HETATM    7  F   UNL     1      62.673   8.069   6.525  1.00  0.00    -0.202 F 
HETATM    8  F   UNL     1      62.043   5.847   5.141  1.00  0.00    -0.200 F 
HETATM    9  F   UNL     1      61.690   5.949   2.436  1.00  0.00    -0.203 F 
ENDROOT
BRANCH   1  10
HETATM   10  C   UNL     1      63.024  10.645   5.201  1.00  0.00     0.212 C 
HETATM   11  O   UNL     1      63.967  10.779   5.961  1.00  0.00    -0.644 OA
HETATM   12  O   UNL     1      62.211  11.671   4.920  1.00  0.00    -0.644 OA
ENDBRANCH   1  10
TORSDOF 1
ENDMDL
