MODEL 1
REMARK VINA RESULT:      -4.0      0.000      0.000
REMARK  2 active torsions:
REMARK  status: ('A' for Active; 'I' for Inactive)
REMARK    1  A    between atoms: C_2  and  N_4 
REMARK    2  A    between atoms: C_3  and  O_5 
ROOT
HETATM    1  C   UNL     1      63.531   9.416   5.069  1.00  0.00     0.065 A 
HETATM    2  C   UNL     1      63.046  10.715   5.260  1.00  0.00     0.028 A 
HETATM    3  C   UNL     1      63.233   8.702   3.904  1.00  0.00     0.070 A 
HETATM    4  C   UNL     1      61.867  10.552   3.147  1.00  0.00     0.005 A 
HETATM    5  C   UNL     1      62.173  11.255   4.312  1.00  0.00     0.029 A 
HETATM    6  C   UNL     1      62.403   9.281   2.942  1.00  0.00     0.037 A 
ENDROOT
BRANCH   2   7
HETATM    7  N   UNL     1      63.241  11.366   6.486  1.00  0.00    -0.399 N 
HETATM    8  H   UNL     1      62.836  12.248   6.644  1.00  0.00     0.156 HD
HETATM    9  H   UNL     1      63.783  10.940   7.189  1.00  0.00     0.156 HD
ENDBRANCH   2   7
BRANCH   3  10
HETATM   10  O   UNL     1      63.672   7.443   3.597  1.00  0.00    -0.356 OA
HETATM   11  C   UNL     1      63.233   6.898   2.359  1.00  0.00     0.210 C 
ENDBRANCH   3  10
TORSDOF 2
ENDMDL
MODEL 2
REMARK VINA RESULT:      -4.0      1.578      2.336
REMARK  2 active torsions:
REMARK  status: ('A' for Active; 'I' for Inactive)
REMARK    1  A    between atoms: C_2  and  N_4 
REMARK    2  A    between atoms: C_3  and  O_5 
ROOT
HETATM    1  C   UNL     1      62.217  10.662   3.951  1.00  0.00     0.065 A 
HETATM    2  C   UNL     1      62.967  10.384   5.100  1.00  0.00     0.028 A 
HETATM    3  C   UNL     1      62.129   9.734   2.909  1.00  0.00     0.070 A 
HETATM    4  C   UNL     1      63.631   8.269   4.116  1.00  0.00     0.005 A 
HETATM    5  C   UNL     1      63.711   9.202   5.150  1.00  0.00     0.029 A 
HETATM    6  C   UNL     1      62.835   8.533   3.003  1.00  0.00     0.037 A 
ENDROOT
BRANCH   2   7
HETATM    7  N   UNL     1      63.156  11.375   6.074  1.00  0.00    -0.399 N 
HETATM    8  H   UNL     1      64.046  11.772   6.205  1.00  0.00     0.156 HD
HETATM    9  H   UNL     1      62.397  11.672   6.627  1.00  0.00     0.156 HD
ENDBRANCH   2   7
BRANCH   3  10
HETATM   10  O   UNL     1      61.406   9.884   1.756  1.00  0.00    -0.356 OA
HETATM   11  C   UNL     1      61.285   8.737   0.924  1.00  0.00     0.210 C 
ENDBRANCH   3  10
TORSDOF 2
ENDMDL
MODEL 3
REMARK VINA RESULT:      -4.0      2.128      2.902
REMARK  2 active torsions:
REMARK  status: ('A' for Active; 'I' for Inactive)
REMARK    1  A    between atoms: C_2  and  N_4 
REMARK    2  A    between atoms: C_3  and  O_5 
ROOT
HETATM    1  C   UNL     1      62.193  10.497   3.971  1.00  0.00     0.065 A 
HETATM    2  C   UNL     1      61.972  10.689   2.602  1.00  0.00     0.028 A 
HETATM    3  C   UNL     1      62.628   9.262   4.461  1.00  0.00     0.070 A 
HETATM    4  C   UNL     1      62.529   8.361   2.217  1.00  0.00     0.005 A 
HETATM    5  C   UNL     1      62.097   9.598   1.738  1.00  0.00     0.029 A 
HETATM    6  C   UNL     1      62.801   8.198   3.574  1.00  0.00     0.037 A 
ENDROOT
BRANCH   2   7
HETATM    7  N   UNL     1      61.409  11.888   2.142  1.00  0.00    -0.399 N 
HETATM    8  H   UNL     1      61.585  12.193   1.223  1.00  0.00     0.156 HD
HETATM    9  H   UNL     1      60.838  12.425   2.738  1.00  0.00     0.156 HD
ENDBRANCH   2   7
BRANCH   3  10
HETATM   10  O   UNL     1      62.903   8.967   5.769  1.00  0.00    -0.356 OA
HETATM   11  C   UNL     1      62.788   7.602   6.153  1.00  0.00     0.210 C 
ENDBRANCH   3  10
TORSDOF 2
ENDMDL
MODEL 4
REMARK VINA RESULT:      -3.9      2.216      2.922
REMARK  2 active torsions:
REMARK  status: ('A' for Active; 'I' for Inactive)
REMARK    1  A    between atoms: C_2  and  N_4 
REMARK    2  A    between atoms: C_3  and  O_5 
ROOT
HETATM    1  C   UNL     1      62.970   8.880   3.577  1.00  0.00     0.065 A 
HETATM    2  C   UNL     1      62.196   9.687   2.736  1.00  0.00     0.028 A 
HETATM    3  C   UNL     1      63.319   9.308   4.862  1.00  0.00     0.070 A 
HETATM    4  C   UNL     1      62.199  11.412   4.441  1.00  0.00     0.005 A 
HETATM    5  C   UNL     1      61.856  10.974   3.162  1.00  0.00     0.029 A 
HETATM    6  C   UNL     1      62.922  10.576   5.290  1.00  0.00     0.037 A 
ENDROOT
BRANCH   2   7
HETATM    7  N   UNL     1      61.968   9.304   1.407  1.00  0.00    -0.399 N 
HETATM    8  H   UNL     1      61.080   9.433   1.003  1.00  0.00     0.156 HD
HETATM    9  H   UNL     1      62.697   8.906   0.878  1.00  0.00     0.156 HD
ENDBRANCH   2   7
BRANCH   3  10
HETATM   10  O   UNL     1      64.045   8.596   5.778  1.00  0.00    -0.356 OA
HETATM   11  C   UNL     1      65.341   8.172   5.376  1.00  0.00     0.210 C 
ENDBRANCH   3  10
TORSDOF 2
ENDMDL
MODEL 5
REMARK VINA RESULT:      -3.9      2.079      3.158
REMARK  2 active torsions:
REMARK  status: ('A' for Active; 'I' for Inactive)
REMARK    1  A    between atoms: C_2  and  N_4 
REMARK    2  A    between atoms: C_3  and  O_5 
ROOT
HETATM    1  C   UNL     1      62.827   9.699   4.889  1.00  0.00     0.065 A 
HETATM    2  C   UNL     1      63.366   8.412   5.012  1.00  0.00     0.028 A 
HETATM    3  C   UNL     1      62.261  10.127   3.685  1.00  0.00     0.070 A 
HETATM    4  C   UNL     1      62.859   8.011   2.675  1.00  0.00     0.005 A 
HETATM    5  C   UNL     1      63.420   7.593   3.882  1.00  0.00     0.029 A 
HETATM    6  C   UNL     1      62.275   9.273   2.581  1.00  0.00     0.037 A 
ENDROOT
BRANCH   2   7
HETATM    7  N   UNL     1      64.049   8.044   6.180  1.00  0.00    -0.399 N 
HETATM    8  H   UNL     1      64.430   8.737   6.765  1.00  0.00     0.156 HD
HETATM    9  H   UNL     1      64.147   7.093   6.413  1.00  0.00     0.156 HD
ENDBRANCH   2   7
BRANCH   3  10
HETATM   10  O   UNL     1      61.682  11.347   3.457  1.00  0.00    -0.356 OA
HETATM   11  C   UNL     1      61.731  11.838   2.123  1.00  0.00     0.210 C 
ENDBRANCH   3  10
TORSDOF 2
ENDMDL
MODEL 6
REMARK VINA RESULT:      -3.9      2.572      3.672
REMARK  2 active torsions:
REMARK  status: ('A' for Active; 'I' for Inactive)
REMARK    1  A    between atoms: C_2  and  N_4 
REMARK    2  A    between atoms: C_3  and  O_5 
ROOT
HETATM    1  C   UNL     1      62.801   9.136   3.846  1.00  0.00     0.065 A 
HETATM    2  C   UNL     1      62.856   8.179   2.825  1.00  0.00     0.028 A 
HETATM    3  C   UNL     1      62.246  10.399   3.617  1.00  0.00     0.070 A 
HETATM    4  C   UNL     1      61.881   9.795   1.302  1.00  0.00     0.005 A 
HETATM    5  C   UNL     1      62.436   8.538   1.541  1.00  0.00     0.029 A 
HETATM    6  C   UNL     1      61.781  10.719   2.341  1.00  0.00     0.037 A 
ENDROOT
BRANCH   2   7
HETATM    7  N   UNL     1      63.534   6.970   3.030  1.00  0.00    -0.399 N 
HETATM    8  H   UNL     1      64.496   6.975   3.235  1.00  0.00     0.156 HD
HETATM    9  H   UNL     1      63.048   6.116   2.968  1.00  0.00     0.156 HD
ENDBRANCH   2   7
BRANCH   3  10
HETATM   10  O   UNL     1      62.114  11.399   4.542  1.00  0.00    -0.356 OA
HETATM   11  C   UNL     1      62.860  11.261   5.744  1.00  0.00     0.210 C 
ENDBRANCH   3  10
TORSDOF 2
ENDMDL
MODEL 7
REMARK VINA RESULT:      -3.9      2.290      3.342
REMARK  2 active torsions:
REMARK  status: ('A' for Active; 'I' for Inactive)
REMARK    1  A    between atoms: C_2  and  N_4 
REMARK    2  A    between atoms: C_3  and  O_5 
ROOT
HETATM    1  C   UNL     1      63.363   9.521   4.797  1.00  0.00     0.065 A 
HETATM    2  C   UNL     1      62.497   9.135   3.766  1.00  0.00     0.028 A 
HETATM    3  C   UNL     1      64.508   8.774   5.090  1.00  0.00     0.070 A 
HETATM    4  C   UNL     1      63.879   7.180   3.379  1.00  0.00     0.005 A 
HETATM    5  C   UNL     1      62.741   7.934   3.095  1.00  0.00     0.029 A 
HETATM    6  C   UNL     1      64.763   7.605   4.370  1.00  0.00     0.037 A 
ENDROOT
BRANCH   2   7
HETATM    7  N   UNL     1      61.287   9.816   3.573  1.00  0.00    -0.399 N 
HETATM    8  H   UNL     1      60.435   9.327   3.626  1.00  0.00     0.156 HD
HETATM    9  H   UNL     1      61.290  10.782   3.383  1.00  0.00     0.156 HD
ENDBRANCH   2   7
BRANCH   3  10
HETATM   10  O   UNL     1      65.437   9.068   6.051  1.00  0.00    -0.356 OA
HETATM   11  C   UNL     1      66.442   8.090   6.288  1.00  0.00     0.210 C 
ENDBRANCH   3  10
TORSDOF 2
ENDMDL
MODEL 8
REMARK VINA RESULT:      -3.8      1.842      2.351
REMARK  2 active torsions:
REMARK  status: ('A' for Active; 'I' for Inactive)
REMARK    1  A    between atoms: C_2  and  N_4 
REMARK    2  A    between atoms: C_3  and  O_5 
ROOT
HETATM    1  C   UNL     1      62.806   8.919   3.522  1.00  0.00     0.065 A 
HETATM    2  C   UNL     1      63.208   9.296   4.809  1.00  0.00     0.028 A 
HETATM    3  C   UNL     1      62.149   9.823   2.681  1.00  0.00     0.070 A 
HETATM    4  C   UNL     1      62.199  11.472   4.451  1.00  0.00     0.005 A 
HETATM    5  C   UNL     1      62.855  10.563   5.281  1.00  0.00     0.029 A 
HETATM    6  C   UNL     1      61.855  11.103   3.152  1.00  0.00     0.037 A 
ENDROOT
BRANCH   2   7
HETATM    7  N   UNL     1      63.743   8.343   5.686  1.00  0.00    -0.399 N 
HETATM    8  H   UNL     1      63.387   7.426   5.693  1.00  0.00     0.156 HD
HETATM    9  H   UNL     1      64.475   8.592   6.296  1.00  0.00     0.156 HD
ENDBRANCH   2   7
BRANCH   3  10
HETATM   10  O   UNL     1      61.737   9.576   1.399  1.00  0.00    -0.356 OA
HETATM   11  C   UNL     1      60.921   8.428   1.200  1.00  0.00     0.210 C 
ENDBRANCH   3  10
TORSDOF 2
ENDMDL
MODEL 9
REMARK VINA RESULT:      -3.4     12.555     13.136
REMARK  2 active torsions:
REMARK  status: ('A' for Active; 'I' for Inactive)
REMARK    1  A    between atoms: C_2  and  N_4 
REMARK    2  A    between atoms: C_3  and  O_5 
ROOT
HETATM    1  C   UNL     1      56.573   1.888  12.969  1.00  0.00     0.065 A 
HETATM    2  C   UNL     1      56.854   0.948  13.968  1.00  0.00     0.028 A 
HETATM    3  C   UNL     1      57.602   2.480  12.230  1.00  0.00     0.070 A 
HETATM    4  C   UNL     1      59.223   1.267  13.557  1.00  0.00     0.005 A 
HETATM    5  C   UNL     1      58.188   0.681  14.287  1.00  0.00     0.029 A 
HETATM    6  C   UNL     1      58.928   2.158  12.526  1.00  0.00     0.037 A 
ENDROOT
BRANCH   2   7
HETATM    7  N   UNL     1      55.826   0.465  14.789  1.00  0.00    -0.399 N 
HETATM    8  H   UNL     1      55.753  -0.499  14.969  1.00  0.00     0.156 HD
HETATM    9  H   UNL     1      55.176   1.091  15.184  1.00  0.00     0.156 HD
ENDBRANCH   2   7
BRANCH   3  10
HETATM   10  O   UNL     1      57.446   3.385  11.216  1.00  0.00    -0.356 OA
HETATM   11  C   UNL     1      58.440   3.383  10.199  1.00  0.00     0.210 C 
ENDBRANCH   3  10
TORSDOF 2
ENDMDL
