MODEL 1
REMARK VINA RESULT:      -3.8      0.000      0.000
REMARK  0 active torsions:
REMARK  status: ('A' for Active; 'I' for Inactive)
ROOT
HETATM    1  S   UNL     1      62.903   9.409   4.475  1.00  0.00    -0.039 SA
HETATM    2  C   UNL     1      62.805  10.995   5.128  1.00  0.00     0.158 A 
HETATM    3  N   UNL     1      62.149  11.840   4.366  1.00  0.00    -0.279 N 
ATOM      4  HN  UNL     1      61.990  12.818   4.611  1.00  0.00     0.189 HD
HETATM    5  N   UNL     1      61.697  11.261   3.197  1.00  0.00    -0.296 N 
ATOM      6  HN  UNL     1      61.167  11.758   2.481  1.00  0.00     0.187 HD
HETATM    7  C   UNL     1      62.032   9.991   3.116  1.00  0.00     0.066 A 
HETATM    8  N   UNL     1      63.350  11.303   6.320  1.00  0.00    -0.379 N 
HETATM    9  C   UNL     1      61.708   9.109   1.968  1.00  0.00     0.078 C 
HETATM   10  H   UNL     1      63.828  10.615   6.835  1.00  0.00     0.158 HD
HETATM   11  H   UNL     1      63.269  12.217   6.676  1.00  0.00     0.158 HD
ENDROOT
TORSDOF 0
ENDMDL
MODEL 2
REMARK VINA RESULT:      -3.7      1.639      2.015
REMARK  0 active torsions:
REMARK  status: ('A' for Active; 'I' for Inactive)
ROOT
HETATM    1  S   UNL     1      62.372   9.154   3.746  1.00  0.00    -0.039 SA
HETATM    2  C   UNL     1      62.951   9.315   5.355  1.00  0.00     0.158 A 
HETATM    3  N   UNL     1      62.971  10.555   5.788  1.00  0.00    -0.279 N 
ATOM      4  HN  UNL     1      63.276  10.823   6.723  1.00  0.00     0.189 HD
HETATM    5  N   UNL     1      62.534  11.457   4.838  1.00  0.00    -0.296 N 
ATOM      6  HN  UNL     1      62.477  12.464   4.989  1.00  0.00     0.187 HD
HETATM    7  C   UNL     1      62.198  10.861   3.713  1.00  0.00     0.066 A 
HETATM    8  N   UNL     1      63.327   8.245   6.080  1.00  0.00    -0.379 N 
HETATM    9  C   UNL     1      61.713  11.568   2.502  1.00  0.00     0.078 C 
HETATM   10  H   UNL     1      63.284   7.344   5.687  1.00  0.00     0.158 HD
HETATM   11  H   UNL     1      63.645   8.364   7.004  1.00  0.00     0.158 HD
ENDROOT
TORSDOF 0
ENDMDL
MODEL 3
REMARK VINA RESULT:      -3.5      1.638      2.764
REMARK  0 active torsions:
REMARK  status: ('A' for Active; 'I' for Inactive)
ROOT
HETATM    1  S   UNL     1      62.332   9.174   3.486  1.00  0.00    -0.039 SA
HETATM    2  C   UNL     1      62.126  10.870   3.668  1.00  0.00     0.158 A 
HETATM    3  N   UNL     1      62.527  11.329   4.833  1.00  0.00    -0.279 N 
ATOM      4  HN  UNL     1      62.484  12.312   5.099  1.00  0.00     0.189 HD
HETATM    5  N   UNL     1      63.012  10.333   5.658  1.00  0.00    -0.296 N 
ATOM      6  HN  UNL     1      63.368  10.495   6.600  1.00  0.00     0.187 HD
HETATM    7  C   UNL     1      62.958   9.150   5.084  1.00  0.00     0.066 A 
HETATM    8  N   UNL     1      61.612  11.629   2.683  1.00  0.00    -0.379 N 
HETATM    9  C   UNL     1      63.386   7.884   5.729  1.00  0.00     0.078 C 
HETATM   10  H   UNL     1      61.333  11.213   1.836  1.00  0.00     0.158 HD
HETATM   11  H   UNL     1      61.515  12.600   2.810  1.00  0.00     0.158 HD
ENDROOT
TORSDOF 0
ENDMDL
MODEL 4
REMARK VINA RESULT:      -3.4      1.575      3.351
REMARK  0 active torsions:
REMARK  status: ('A' for Active; 'I' for Inactive)
ROOT
HETATM    1  S   UNL     1      62.549   9.068   3.327  1.00  0.00    -0.039 SA
HETATM    2  C   UNL     1      61.792   9.652   1.900  1.00  0.00     0.158 A 
HETATM    3  N   UNL     1      61.445  10.918   1.966  1.00  0.00    -0.279 N 
ATOM      4  HN  UNL     1      60.995  11.422   1.202  1.00  0.00     0.189 HD
HETATM    5  N   UNL     1      61.756  11.491   3.184  1.00  0.00    -0.296 N 
ATOM      6  HN  UNL     1      61.564  12.464   3.422  1.00  0.00     0.187 HD
HETATM    7  C   UNL     1      62.329  10.632   3.999  1.00  0.00     0.066 A 
HETATM    8  N   UNL     1      61.601   8.862   0.828  1.00  0.00    -0.379 N 
HETATM    9  C   UNL     1      62.756  10.948   5.384  1.00  0.00     0.078 C 
HETATM   10  H   UNL     1      61.888   7.921   0.852  1.00  0.00     0.158 HD
HETATM   11  H   UNL     1      61.174   9.225   0.019  1.00  0.00     0.158 HD
ENDROOT
TORSDOF 0
ENDMDL
MODEL 5
REMARK VINA RESULT:      -3.3      5.391      6.274
REMARK  0 active torsions:
REMARK  status: ('A' for Active; 'I' for Inactive)
ROOT
HETATM    1  S   UNL     1      65.144   6.273   6.831  1.00  0.00    -0.039 SA
HETATM    2  C   UNL     1      66.330   6.299   8.073  1.00  0.00     0.158 A 
HETATM    3  N   UNL     1      67.101   7.363   8.046  1.00  0.00    -0.279 N 
ATOM      4  HN  UNL     1      67.848   7.538   8.718  1.00  0.00     0.189 HD
HETATM    5  N   UNL     1      66.789   8.218   7.007  1.00  0.00    -0.296 N 
ATOM      6  HN  UNL     1      67.276   9.095   6.824  1.00  0.00     0.187 HD
HETATM    7  C   UNL     1      65.789   7.766   6.281  1.00  0.00     0.066 A 
HETATM    8  N   UNL     1      66.424   5.310   8.981  1.00  0.00    -0.379 N 
HETATM    9  C   UNL     1      65.243   8.452   5.085  1.00  0.00     0.078 C 
HETATM   10  H   UNL     1      65.810   4.542   8.938  1.00  0.00     0.158 HD
HETATM   11  H   UNL     1      67.106   5.355   9.689  1.00  0.00     0.158 HD
ENDROOT
TORSDOF 0
ENDMDL
MODEL 6
REMARK VINA RESULT:      -3.2      6.441      7.191
REMARK  0 active torsions:
REMARK  status: ('A' for Active; 'I' for Inactive)
ROOT
HETATM    1  S   UNL     1      67.252   5.685   6.746  1.00  0.00    -0.039 SA
HETATM    2  C   UNL     1      67.467   6.998   5.658  1.00  0.00     0.158 A 
HETATM    3  N   UNL     1      67.300   8.177   6.214  1.00  0.00    -0.279 N 
ATOM      4  HN  UNL     1      67.401   9.058   5.711  1.00  0.00     0.189 HD
HETATM    5  N   UNL     1      66.971   8.092   7.553  1.00  0.00    -0.296 N 
ATOM      6  HN  UNL     1      66.804   8.900   8.152  1.00  0.00     0.187 HD
HETATM    7  C   UNL     1      66.900   6.844   7.963  1.00  0.00     0.066 A 
HETATM    8  N   UNL     1      67.790   6.799   4.367  1.00  0.00    -0.379 N 
HETATM    9  C   UNL     1      66.546   6.434   9.344  1.00  0.00     0.078 C 
HETATM   10  H   UNL     1      67.898   5.884   4.022  1.00  0.00     0.158 HD
HETATM   11  H   UNL     1      67.918   7.570   3.768  1.00  0.00     0.158 HD
ENDROOT
TORSDOF 0
ENDMDL
MODEL 7
REMARK VINA RESULT:      -3.0      6.357      7.411
REMARK  0 active torsions:
REMARK  status: ('A' for Active; 'I' for Inactive)
ROOT
HETATM    1  S   UNL     1      65.977   5.554   7.085  1.00  0.00    -0.039 SA
HETATM    2  C   UNL     1      66.013   7.268   6.977  1.00  0.00     0.158 A 
HETATM    3  N   UNL     1      66.956   7.823   7.704  1.00  0.00    -0.279 N 
ATOM      4  HN  UNL     1      67.121   8.828   7.746  1.00  0.00     0.189 HD
HETATM    5  N   UNL     1      67.700   6.895   8.408  1.00  0.00    -0.296 N 
ATOM      6  HN  UNL     1      68.476   7.135   9.025  1.00  0.00     0.187 HD
HETATM    7  C   UNL     1      67.288   5.665   8.186  1.00  0.00     0.066 A 
HETATM    8  N   UNL     1      65.149   7.945   6.200  1.00  0.00    -0.379 N 
HETATM    9  C   UNL     1      67.876   4.458   8.816  1.00  0.00     0.078 C 
HETATM   10  H   UNL     1      64.467   7.460   5.682  1.00  0.00     0.158 HD
HETATM   11  H   UNL     1      65.198   8.927   6.148  1.00  0.00     0.158 HD
ENDROOT
TORSDOF 0
ENDMDL
MODEL 8
REMARK VINA RESULT:      -2.9      3.115      3.630
REMARK  0 active torsions:
REMARK  status: ('A' for Active; 'I' for Inactive)
ROOT
HETATM    1  S   UNL     1      63.743   7.662   3.883  1.00  0.00    -0.039 SA
HETATM    2  C   UNL     1      65.001   7.653   5.052  1.00  0.00     0.158 A 
HETATM    3  N   UNL     1      64.996   8.702   5.843  1.00  0.00    -0.279 N 
ATOM      4  HN  UNL     1      65.667   8.846   6.597  1.00  0.00     0.189 HD
HETATM    5  N   UNL     1      63.981   9.590   5.541  1.00  0.00    -0.296 N 
ATOM      6  HN  UNL     1      63.816  10.461   6.045  1.00  0.00     0.187 HD
HETATM    7  C   UNL     1      63.253   9.176   4.526  1.00  0.00     0.066 A 
HETATM    8  N   UNL     1      65.884   6.640   5.132  1.00  0.00    -0.379 N 
HETATM    9  C   UNL     1      62.106   9.926   3.956  1.00  0.00     0.078 C 
HETATM   10  H   UNL     1      65.825   5.885   4.503  1.00  0.00     0.158 HD
HETATM   11  H   UNL     1      66.589   6.654   5.819  1.00  0.00     0.158 HD
ENDROOT
TORSDOF 0
ENDMDL
MODEL 9
REMARK VINA RESULT:      -2.9     13.865     14.407
REMARK  0 active torsions:
REMARK  status: ('A' for Active; 'I' for Inactive)
ROOT
HETATM    1  S   UNL     1      58.155  -0.410  13.250  1.00  0.00    -0.039 SA
HETATM    2  C   UNL     1      57.358   0.801  14.172  1.00  0.00     0.158 A 
HETATM    3  N   UNL     1      58.075   1.888  14.347  1.00  0.00    -0.279 N 
ATOM      4  HN  UNL     1      57.747   2.706  14.861  1.00  0.00     0.189 HD
HETATM    5  N   UNL     1      59.323   1.803  13.760  1.00  0.00    -0.296 N 
ATOM      6  HN  UNL     1      60.019   2.547  13.789  1.00  0.00     0.187 HD
HETATM    7  C   UNL     1      59.505   0.646  13.159  1.00  0.00     0.066 A 
HETATM    8  N   UNL     1      56.110   0.624  14.641  1.00  0.00    -0.379 N 
HETATM    9  C   UNL     1      60.752   0.251  12.460  1.00  0.00     0.078 C 
HETATM   10  H   UNL     1      55.634  -0.220  14.469  1.00  0.00     0.158 HD
HETATM   11  H   UNL     1      55.672   1.339  15.158  1.00  0.00     0.158 HD
ENDROOT
TORSDOF 0
ENDMDL
