MODEL 1
REMARK VINA RESULT:      -4.5      0.000      0.000
REMARK  1 active torsions:
REMARK  status: ('A' for Active; 'I' for Inactive)
REMARK    1  A    between atoms: C_5  and  C_6 
ROOT
HETATM    1  N   UNL     1      65.426   8.446   5.971  1.00  0.00    -0.386 N 
ATOM      2  HN  UNL     1      65.514   9.199   6.654  1.00  0.00     0.160 HD
HETATM    3  C   UNL     1      66.381   7.488   5.826  1.00  0.00     0.154 C 
HETATM    4  C   UNL     1      64.354   8.340   5.156  1.00  0.00     0.084 C 
HETATM    5  C   UNL     1      66.596   6.936   4.560  1.00  0.00     0.004 C 
HETATM    6  C   UNL     1      64.282   7.404   4.139  1.00  0.00     0.017 C 
HETATM    7  C   UNL     1      65.450   6.740   3.793  1.00  0.00    -0.000 C 
ENDROOT
BRANCH   3   8
HETATM    8  C   UNL     1      66.302   6.412   6.911  1.00  0.00     0.035 C 
HETATM    9  N   UNL     1      65.937   6.891   8.137  1.00  0.00    -0.367 N 
HETATM   10  C   UNL     1      66.756   6.609   9.171  1.00  0.00     0.088 C 
ATOM     11  HN  UNL     1      65.085   7.437   8.264  1.00  0.00     0.165 HD
HETATM   12  C   UNL     1      67.868   5.791   9.072  1.00  0.00     0.017 C 
HETATM   13  C   UNL     1      68.066   5.111   7.879  1.00  0.00     0.003 C 
HETATM   14  C   UNL     1      67.220   5.356   6.804  1.00  0.00     0.027 C 
ENDBRANCH   3   8
TORSDOF 1
ENDMDL
MODEL 2
REMARK VINA RESULT:      -4.4      1.612      4.672
REMARK  1 active torsions:
REMARK  status: ('A' for Active; 'I' for Inactive)
REMARK    1  A    between atoms: C_5  and  C_6 
ROOT
HETATM    1  N   UNL     1      65.322   7.400   6.986  1.00  0.00    -0.386 N 
ATOM      2  HN  UNL     1      64.709   7.761   7.717  1.00  0.00     0.160 HD
HETATM    3  C   UNL     1      64.843   6.995   5.778  1.00  0.00     0.154 C 
HETATM    4  C   UNL     1      66.657   7.293   7.158  1.00  0.00     0.084 C 
HETATM    5  C   UNL     1      65.489   5.951   5.111  1.00  0.00     0.004 C 
HETATM    6  C   UNL     1      67.481   6.685   6.227  1.00  0.00     0.017 C 
HETATM    7  C   UNL     1      66.877   5.942   5.223  1.00  0.00    -0.000 C 
ENDROOT
BRANCH   3   8
HETATM    8  C   UNL     1      64.543   8.169   4.843  1.00  0.00     0.035 C 
HETATM    9  N   UNL     1      64.223   9.326   5.496  1.00  0.00    -0.367 N 
HETATM   10  C   UNL     1      63.059   9.916   5.154  1.00  0.00     0.088 C 
ATOM     11  HN  UNL     1      64.835   9.724   6.208  1.00  0.00     0.165 HD
HETATM   12  C   UNL     1      62.243   9.474   4.128  1.00  0.00     0.017 C 
HETATM   13  C   UNL     1      62.721   8.456   3.315  1.00  0.00     0.003 C 
HETATM   14  C   UNL     1      63.932   7.848   3.622  1.00  0.00     0.027 C 
ENDBRANCH   3   8
TORSDOF 1
ENDMDL
MODEL 3
REMARK VINA RESULT:      -4.2      6.067      7.869
REMARK  1 active torsions:
REMARK  status: ('A' for Active; 'I' for Inactive)
REMARK    1  A    between atoms: C_5  and  C_6 
ROOT
HETATM    1  N   UNL     1      62.278   8.723   3.473  1.00  0.00    -0.386 N 
ATOM      2  HN  UNL     1      62.617   7.894   3.962  1.00  0.00     0.160 HD
HETATM    3  C   UNL     1      61.851   8.674   2.181  1.00  0.00     0.154 C 
HETATM    4  C   UNL     1      62.225   9.935   4.067  1.00  0.00     0.084 C 
HETATM    5  C   UNL     1      62.042   9.792   1.365  1.00  0.00     0.004 C 
HETATM    6  C   UNL     1      61.892  11.088   3.378  1.00  0.00     0.017 C 
HETATM    7  C   UNL     1      61.870  11.024   1.992  1.00  0.00    -0.000 C 
ENDROOT
BRANCH   3   8
HETATM    8  C   UNL     1      60.435   8.109   2.052  1.00  0.00     0.035 C 
HETATM    9  N   UNL     1      60.179   7.065   2.894  1.00  0.00    -0.367 N 
HETATM   10  C   UNL     1      59.723   5.926   2.332  1.00  0.00     0.088 C 
ATOM     11  HN  UNL     1      60.327   7.142   3.900  1.00  0.00     0.165 HD
HETATM   12  C   UNL     1      59.412   5.801   0.990  1.00  0.00     0.017 C 
HETATM   13  C   UNL     1      59.433   6.949   0.211  1.00  0.00     0.003 C 
HETATM   14  C   UNL     1      59.868   8.145   0.769  1.00  0.00     0.027 C 
ENDBRANCH   3   8
TORSDOF 1
ENDMDL
MODEL 4
REMARK VINA RESULT:      -4.2      3.710      5.511
REMARK  1 active torsions:
REMARK  status: ('A' for Active; 'I' for Inactive)
REMARK    1  A    between atoms: C_5  and  C_6 
ROOT
HETATM    1  N   UNL     1      60.369   8.385   2.775  1.00  0.00    -0.386 N 
ATOM      2  HN  UNL     1      59.540   7.934   3.162  1.00  0.00     0.160 HD
HETATM    3  C   UNL     1      61.193   9.156   3.536  1.00  0.00     0.154 C 
HETATM    4  C   UNL     1      60.715   8.255   1.476  1.00  0.00     0.084 C 
HETATM    5  C   UNL     1      61.847  10.237   2.940  1.00  0.00     0.004 C 
HETATM    6  C   UNL     1      61.760   8.965   0.909  1.00  0.00     0.017 C 
HETATM    7  C   UNL     1      62.286  10.023   1.636  1.00  0.00    -0.000 C 
ENDROOT
BRANCH   3   8
HETATM    8  C   UNL     1      62.142   8.322   4.401  1.00  0.00     0.035 C 
HETATM    9  N   UNL     1      63.051   9.066   5.096  1.00  0.00    -0.367 N 
HETATM   10  C   UNL     1      64.352   8.745   4.936  1.00  0.00     0.088 C 
ATOM     11  HN  UNL     1      62.761   9.829   5.708  1.00  0.00     0.165 HD
HETATM   12  C   UNL     1      64.792   7.660   4.199  1.00  0.00     0.017 C 
HETATM   13  C   UNL     1      63.838   6.773   3.721  1.00  0.00     0.003 C 
HETATM   14  C   UNL     1      62.489   7.059   3.898  1.00  0.00     0.027 C 
ENDBRANCH   3   8
TORSDOF 1
ENDMDL
MODEL 5
REMARK VINA RESULT:      -4.1      6.205      7.308
REMARK  1 active torsions:
REMARK  status: ('A' for Active; 'I' for Inactive)
REMARK    1  A    between atoms: C_5  and  C_6 
ROOT
HETATM    1  N   UNL     1      61.018   6.865   2.968  1.00  0.00    -0.386 N 
ATOM      2  HN  UNL     1      60.842   6.798   3.971  1.00  0.00     0.160 HD
HETATM    3  C   UNL     1      60.783   8.009   2.269  1.00  0.00     0.154 C 
HETATM    4  C   UNL     1      61.500   5.824   2.254  1.00  0.00     0.084 C 
HETATM    5  C   UNL     1      60.380   7.913   0.934  1.00  0.00     0.004 C 
HETATM    6  C   UNL     1      61.620   5.860   0.875  1.00  0.00     0.017 C 
HETATM    7  C   UNL     1      60.984   6.893   0.202  1.00  0.00    -0.000 C 
ENDROOT
BRANCH   3   8
HETATM    8  C   UNL     1      61.888   9.050   2.458  1.00  0.00     0.035 C 
HETATM    9  N   UNL     1      62.248   9.241   3.761  1.00  0.00    -0.367 N 
HETATM   10  C   UNL     1      62.208  10.508   4.225  1.00  0.00     0.088 C 
ATOM     11  HN  UNL     1      62.534   8.463   4.356  1.00  0.00     0.165 HD
HETATM   12  C   UNL     1      61.925  11.608   3.436  1.00  0.00     0.017 C 
HETATM   13  C   UNL     1      61.820  11.413   2.067  1.00  0.00     0.003 C 
HETATM   14  C   UNL     1      61.889  10.123   1.554  1.00  0.00     0.027 C 
ENDBRANCH   3   8
TORSDOF 1
ENDMDL
MODEL 6
REMARK VINA RESULT:      -4.1     12.667     13.524
REMARK  1 active torsions:
REMARK  status: ('A' for Active; 'I' for Inactive)
REMARK    1  A    between atoms: C_5  and  C_6 
ROOT
HETATM    1  N   UNL     1      54.783   2.248  14.914  1.00  0.00    -0.386 N 
ATOM      2  HN  UNL     1      55.163   2.353  15.855  1.00  0.00     0.160 HD
HETATM    3  C   UNL     1      55.463   2.666  13.811  1.00  0.00     0.154 C 
HETATM    4  C   UNL     1      53.576   1.686  14.686  1.00  0.00     0.084 C 
HETATM    5  C   UNL     1      54.741   3.134  12.710  1.00  0.00     0.004 C 
HETATM    6  C   UNL     1      52.994   1.656  13.431  1.00  0.00     0.017 C 
HETATM    7  C   UNL     1      53.555   2.455  12.444  1.00  0.00    -0.000 C 
ENDROOT
BRANCH   3   8
HETATM    8  C   UNL     1      56.565   1.688  13.396  1.00  0.00     0.035 C 
HETATM    9  N   UNL     1      57.161   1.051  14.446  1.00  0.00    -0.367 N 
HETATM   10  C   UNL     1      58.505   1.137  14.529  1.00  0.00     0.088 C 
ATOM     11  HN  UNL     1      56.615   0.534  15.136  1.00  0.00     0.165 HD
HETATM   12  C   UNL     1      59.298   1.739  13.568  1.00  0.00     0.017 C 
HETATM   13  C   UNL     1      58.690   2.147  12.389  1.00  0.00     0.003 C 
HETATM   14  C   UNL     1      57.311   2.041  12.261  1.00  0.00     0.027 C 
ENDBRANCH   3   8
TORSDOF 1
ENDMDL
MODEL 7
REMARK VINA RESULT:      -4.1      3.572      6.316
REMARK  1 active torsions:
REMARK  status: ('A' for Active; 'I' for Inactive)
REMARK    1  A    between atoms: C_5  and  C_6 
ROOT
HETATM    1  N   UNL     1      63.287   9.021   5.514  1.00  0.00    -0.386 N 
ATOM      2  HN  UNL     1      63.042   9.774   6.157  1.00  0.00     0.160 HD
HETATM    3  C   UNL     1      62.361   8.138   5.049  1.00  0.00     0.154 C 
HETATM    4  C   UNL     1      64.551   8.837   5.072  1.00  0.00     0.084 C 
HETATM    5  C   UNL     1      62.755   6.826   4.776  1.00  0.00     0.004 C 
HETATM    6  C   UNL     1      64.920   7.746   4.306  1.00  0.00     0.017 C 
HETATM    7  C   UNL     1      64.024   6.690   4.218  1.00  0.00    -0.000 C 
ENDROOT
BRANCH   3   8
HETATM    8  C   UNL     1      61.507   8.724   3.922  1.00  0.00     0.035 C 
HETATM    9  N   UNL     1      61.232   7.837   2.921  1.00  0.00    -0.367 N 
HETATM   10  C   UNL     1      61.553   8.214   1.666  1.00  0.00     0.088 C 
ATOM     11  HN  UNL     1      60.804   6.931   3.114  1.00  0.00     0.165 HD
HETATM   12  C   UNL     1      62.041   9.466   1.340  1.00  0.00     0.017 C 
HETATM   13  C   UNL     1      62.065  10.431   2.337  1.00  0.00     0.003 C 
HETATM   14  C   UNL     1      61.710  10.082   3.634  1.00  0.00     0.027 C 
ENDBRANCH   3   8
TORSDOF 1
ENDMDL
MODEL 8
REMARK VINA RESULT:      -3.8      4.932      6.721
REMARK  1 active torsions:
REMARK  status: ('A' for Active; 'I' for Inactive)
REMARK    1  A    between atoms: C_5  and  C_6 
ROOT
HETATM    1  N   UNL     1      63.280   8.144   3.023  1.00  0.00    -0.386 N 
ATOM      2  HN  UNL     1      63.927   7.384   2.813  1.00  0.00     0.160 HD
HETATM    3  C   UNL     1      62.290   8.508   2.163  1.00  0.00     0.154 C 
HETATM    4  C   UNL     1      63.354   8.851   4.172  1.00  0.00     0.084 C 
HETATM    5  C   UNL     1      61.900   9.848   2.111  1.00  0.00     0.004 C 
HETATM    6  C   UNL     1      62.569   9.965   4.412  1.00  0.00     0.017 C 
HETATM    7  C   UNL     1      61.883  10.512   3.336  1.00  0.00    -0.000 C 
ENDROOT
BRANCH   3   8
HETATM    8  C   UNL     1      61.086   7.565   2.223  1.00  0.00     0.035 C 
HETATM    9  N   UNL     1      59.928   8.173   2.617  1.00  0.00    -0.367 N 
HETATM   10  C   UNL     1      59.278   7.626   3.665  1.00  0.00     0.088 C 
ATOM     11  HN  UNL     1      59.573   9.003   2.142  1.00  0.00     0.165 HD
HETATM   12  C   UNL     1      59.662   6.448   4.279  1.00  0.00     0.017 C 
HETATM   13  C   UNL     1      60.686   5.717   3.694  1.00  0.00     0.003 C 
HETATM   14  C   UNL     1      61.356   6.239   2.594  1.00  0.00     0.027 C 
ENDBRANCH   3   8
TORSDOF 1
ENDMDL
MODEL 9
REMARK VINA RESULT:      -3.7      3.025      4.865
REMARK  1 active torsions:
REMARK  status: ('A' for Active; 'I' for Inactive)
REMARK    1  A    between atoms: C_5  and  C_6 
ROOT
HETATM    1  N   UNL     1      61.983   7.139   2.265  1.00  0.00    -0.386 N 
ATOM      2  HN  UNL     1      61.800   6.150   2.434  1.00  0.00     0.160 HD
HETATM    3  C   UNL     1      62.376   7.980   3.261  1.00  0.00     0.154 C 
HETATM    4  C   UNL     1      61.852   7.694   1.041  1.00  0.00     0.084 C 
HETATM    5  C   UNL     1      61.979   9.319   3.209  1.00  0.00     0.004 C 
HETATM    6  C   UNL     1      61.970   9.056   0.824  1.00  0.00     0.017 C 
HETATM    7  C   UNL     1      61.964   9.886   1.936  1.00  0.00    -0.000 C 
ENDROOT
BRANCH   3   8
HETATM    8  C   UNL     1      63.862   7.838   3.598  1.00  0.00     0.035 C 
HETATM    9  N   UNL     1      64.381   6.612   3.294  1.00  0.00    -0.367 N 
HETATM   10  C   UNL     1      65.009   5.952   4.289  1.00  0.00     0.088 C 
ATOM     11  HN  UNL     1      64.297   6.214   2.358  1.00  0.00     0.165 HD
HETATM   12  C   UNL     1      65.236   6.487   5.544  1.00  0.00     0.017 C 
HETATM   13  C   UNL     1      64.930   7.826   5.742  1.00  0.00     0.003 C 
HETATM   14  C   UNL     1      64.311   8.542   4.724  1.00  0.00     0.027 C 
ENDBRANCH   3   8
TORSDOF 1
ENDMDL
