MODEL 1
REMARK VINA RESULT:      -5.3      0.000      0.000
REMARK  3 active torsions:
REMARK  status: ('A' for Active; 'I' for Inactive)
REMARK    1  A    between atoms: C_1  and  C_2 
REMARK    2  A    between atoms: C_3  and  C_9 
REMARK    3  A    between atoms: O_7  and  C_9 
ROOT
HETATM    1  C   UNL     1      62.843   9.370   4.108  1.00  0.00     0.056 A 
HETATM    2  C   UNL     1      62.571  10.678   4.564  1.00  0.00    -0.020 A 
HETATM    3  C   UNL     1      62.508   9.031   2.778  1.00  0.00     0.017 A 
HETATM    4  C   UNL     1      62.003  11.610   3.672  1.00  0.00     0.010 A 
HETATM    5  C   UNL     1      61.943   9.966   1.912  1.00  0.00     0.001 A 
HETATM    6  C   UNL     1      61.699  11.258   2.357  1.00  0.00     0.001 A 
ENDROOT
BRANCH   1   7
HETATM    7  C   UNL     1      63.486   8.281   4.948  1.00  0.00     0.418 C 
HETATM    8  F   UNL     1      62.898   8.020   6.143  1.00  0.00    -0.166 F 
HETATM    9  F   UNL     1      64.781   8.589   5.253  1.00  0.00    -0.166 F 
HETATM   10  F   UNL     1      63.543   7.091   4.286  1.00  0.00    -0.166 F 
ENDBRANCH   1   7
BRANCH   2  11
HETATM   11  C   UNL     1      62.853  11.123   5.977  1.00  0.00     0.203 C 
BRANCH  11  12
HETATM   12  O   UNL     1      64.219  11.482   6.114  1.00  0.00    -0.396 OA
HETATM   13  H   UNL     1      64.370  12.346   5.699  1.00  0.00     0.209 HD
ENDBRANCH  11  12
ENDBRANCH   2  11
TORSDOF 3
ENDMDL
MODEL 2
REMARK VINA RESULT:      -4.9      1.168      1.810
REMARK  3 active torsions:
REMARK  status: ('A' for Active; 'I' for Inactive)
REMARK    1  A    between atoms: C_1  and  C_2 
REMARK    2  A    between atoms: C_3  and  C_9 
REMARK    3  A    between atoms: O_7  and  C_9 
ROOT
HETATM    1  C   UNL     1      63.047   8.732   3.702  1.00  0.00     0.056 A 
HETATM    2  C   UNL     1      62.457  10.013   3.617  1.00  0.00    -0.020 A 
HETATM    3  C   UNL     1      62.964   7.871   2.585  1.00  0.00     0.017 A 
HETATM    4  C   UNL     1      61.832  10.400   2.414  1.00  0.00     0.010 A 
HETATM    5  C   UNL     1      62.338   8.271   1.405  1.00  0.00     0.001 A 
HETATM    6  C   UNL     1      61.779   9.539   1.318  1.00  0.00     0.001 A 
ENDROOT
BRANCH   1   7
HETATM    7  C   UNL     1      63.784   8.203   4.919  1.00  0.00     0.418 C 
HETATM    8  F   UNL     1      64.276   6.943   4.822  1.00  0.00    -0.166 F 
HETATM    9  F   UNL     1      62.974   8.181   6.019  1.00  0.00    -0.166 F 
HETATM   10  F   UNL     1      64.838   8.996   5.262  1.00  0.00    -0.166 F 
ENDBRANCH   1   7
BRANCH   2  11
HETATM   11  C   UNL     1      62.456  10.987   4.768  1.00  0.00     0.203 C 
BRANCH  11  12
HETATM   12  O   UNL     1      62.052  12.272   4.321  1.00  0.00    -0.396 OA
HETATM   13  H   UNL     1      61.362  12.178   3.645  1.00  0.00     0.209 HD
ENDBRANCH  11  12
ENDBRANCH   2  11
TORSDOF 3
ENDMDL
MODEL 3
REMARK VINA RESULT:      -4.8      2.266      3.427
REMARK  3 active torsions:
REMARK  status: ('A' for Active; 'I' for Inactive)
REMARK    1  A    between atoms: C_1  and  C_2 
REMARK    2  A    between atoms: C_3  and  C_9 
REMARK    3  A    between atoms: O_7  and  C_9 
ROOT
HETATM    1  C   UNL     1      63.012   8.897   3.670  1.00  0.00     0.056 A 
HETATM    2  C   UNL     1      63.654   9.370   4.835  1.00  0.00    -0.020 A 
HETATM    3  C   UNL     1      63.463   7.691   3.088  1.00  0.00     0.017 A 
HETATM    4  C   UNL     1      64.703   8.613   5.395  1.00  0.00     0.010 A 
HETATM    5  C   UNL     1      64.505   6.958   3.654  1.00  0.00     0.001 A 
HETATM    6  C   UNL     1      65.119   7.415   4.813  1.00  0.00     0.001 A 
ENDROOT
BRANCH   1   7
HETATM    7  C   UNL     1      61.848   9.591   2.986  1.00  0.00     0.418 C 
HETATM    8  F   UNL     1      61.388   9.012   1.848  1.00  0.00    -0.166 F 
HETATM    9  F   UNL     1      62.173  10.868   2.626  1.00  0.00    -0.166 F 
HETATM   10  F   UNL     1      60.770   9.711   3.812  1.00  0.00    -0.166 F 
ENDBRANCH   1   7
BRANCH   2  11
HETATM   11  C   UNL     1      63.273  10.666   5.505  1.00  0.00     0.203 C 
BRANCH  11  12
HETATM   12  O   UNL     1      64.388  11.204   6.200  1.00  0.00    -0.396 OA
HETATM   13  H   UNL     1      65.151  10.615   6.094  1.00  0.00     0.209 HD
ENDBRANCH  11  12
ENDBRANCH   2  11
TORSDOF 3
ENDMDL
MODEL 4
REMARK VINA RESULT:      -4.6      1.963      2.763
REMARK  3 active torsions:
REMARK  status: ('A' for Active; 'I' for Inactive)
REMARK    1  A    between atoms: C_1  and  C_2 
REMARK    2  A    between atoms: C_3  and  C_9 
REMARK    3  A    between atoms: O_7  and  C_9 
ROOT
HETATM    1  C   UNL     1      62.665   8.819   3.280  1.00  0.00     0.056 A 
HETATM    2  C   UNL     1      63.010   9.029   4.633  1.00  0.00    -0.020 A 
HETATM    3  C   UNL     1      62.095   9.886   2.551  1.00  0.00     0.017 A 
HETATM    4  C   UNL     1      62.803  10.301   5.203  1.00  0.00     0.010 A 
HETATM    5  C   UNL     1      61.894  11.137   3.134  1.00  0.00     0.001 A 
HETATM    6  C   UNL     1      62.256  11.346   4.458  1.00  0.00     0.001 A 
ENDROOT
BRANCH   1   7
HETATM    7  C   UNL     1      62.870   7.514   2.532  1.00  0.00     0.418 C 
HETATM    8  F   UNL     1      64.114   6.977   2.592  1.00  0.00    -0.166 F 
HETATM    9  F   UNL     1      62.613   7.660   1.198  1.00  0.00    -0.166 F 
HETATM   10  F   UNL     1      62.016   6.541   2.961  1.00  0.00    -0.166 F 
ENDBRANCH   1   7
BRANCH   2  11
HETATM   11  C   UNL     1      63.584   7.941   5.505  1.00  0.00     0.203 C 
BRANCH  11  12
HETATM   12  O   UNL     1      62.880   7.877   6.736  1.00  0.00    -0.396 OA
HETATM   13  H   UNL     1      62.623   8.771   7.009  1.00  0.00     0.209 HD
ENDBRANCH  11  12
ENDBRANCH   2  11
TORSDOF 3
ENDMDL
MODEL 5
REMARK VINA RESULT:      -4.5      2.021      2.982
REMARK  3 active torsions:
REMARK  status: ('A' for Active; 'I' for Inactive)
REMARK    1  A    between atoms: C_1  and  C_2 
REMARK    2  A    between atoms: C_3  and  C_9 
REMARK    3  A    between atoms: O_7  and  C_9 
ROOT
HETATM    1  C   UNL     1      62.744   9.247   3.728  1.00  0.00     0.056 A 
HETATM    2  C   UNL     1      62.908   8.056   2.987  1.00  0.00    -0.020 A 
HETATM    3  C   UNL     1      62.177  10.372   3.088  1.00  0.00     0.017 A 
HETATM    4  C   UNL     1      62.476   8.019   1.646  1.00  0.00     0.010 A 
HETATM    5  C   UNL     1      61.760  10.317   1.759  1.00  0.00     0.001 A 
HETATM    6  C   UNL     1      61.902   9.137   1.041  1.00  0.00     0.001 A 
ENDROOT
BRANCH   1   7
HETATM    7  C   UNL     1      63.128   9.413   5.187  1.00  0.00     0.418 C 
HETATM    8  F   UNL     1      62.630   8.489   6.047  1.00  0.00    -0.166 F 
HETATM    9  F   UNL     1      62.706  10.616   5.679  1.00  0.00    -0.166 F 
HETATM   10  F   UNL     1      64.480   9.405   5.362  1.00  0.00    -0.166 F 
ENDBRANCH   1   7
BRANCH   2  11
HETATM   11  C   UNL     1      63.541   6.817   3.568  1.00  0.00     0.203 C 
BRANCH  11  12
HETATM   12  O   UNL     1      64.953   6.883   3.442  1.00  0.00    -0.396 OA
HETATM   13  H   UNL     1      65.354   6.117   3.883  1.00  0.00     0.209 HD
ENDBRANCH  11  12
ENDBRANCH   2  11
TORSDOF 3
ENDMDL
MODEL 6
REMARK VINA RESULT:      -4.4      2.433      3.367
REMARK  3 active torsions:
REMARK  status: ('A' for Active; 'I' for Inactive)
REMARK    1  A    between atoms: C_1  and  C_2 
REMARK    2  A    between atoms: C_3  and  C_9 
REMARK    3  A    between atoms: O_7  and  C_9 
ROOT
HETATM    1  C   UNL     1      62.476   8.994   3.184  1.00  0.00     0.056 A 
HETATM    2  C   UNL     1      62.131   9.576   1.945  1.00  0.00    -0.020 A 
HETATM    3  C   UNL     1      62.512   9.813   4.334  1.00  0.00     0.017 A 
HETATM    4  C   UNL     1      61.806  10.947   1.900  1.00  0.00     0.010 A 
HETATM    5  C   UNL     1      62.191  11.169   4.268  1.00  0.00     0.001 A 
HETATM    6  C   UNL     1      61.830  11.733   3.052  1.00  0.00     0.001 A 
ENDROOT
BRANCH   1   7
HETATM    7  C   UNL     1      62.809   7.526   3.382  1.00  0.00     0.418 C 
HETATM    8  F   UNL     1      61.837   6.640   3.051  1.00  0.00    -0.166 F 
HETATM    9  F   UNL     1      63.103   7.254   4.688  1.00  0.00    -0.166 F 
HETATM   10  F   UNL     1      63.916   7.155   2.677  1.00  0.00    -0.166 F 
ENDBRANCH   1   7
BRANCH   2  11
HETATM   11  C   UNL     1      62.106   8.794   0.656  1.00  0.00     0.203 C 
BRANCH  11  12
HETATM   12  O   UNL     1      60.822   8.220   0.457  1.00  0.00    -0.396 OA
HETATM   13  H   UNL     1      60.736   7.933  -0.466  1.00  0.00     0.209 HD
ENDBRANCH  11  12
ENDBRANCH   2  11
TORSDOF 3
ENDMDL
MODEL 7
REMARK VINA RESULT:      -4.3      3.386      4.516
REMARK  3 active torsions:
REMARK  status: ('A' for Active; 'I' for Inactive)
REMARK    1  A    between atoms: C_1  and  C_2 
REMARK    2  A    between atoms: C_3  and  C_9 
REMARK    3  A    between atoms: O_7  and  C_9 
ROOT
HETATM    1  C   UNL     1      62.389   9.400   2.889  1.00  0.00     0.056 A 
HETATM    2  C   UNL     1      62.965   8.134   3.134  1.00  0.00    -0.020 A 
HETATM    3  C   UNL     1      62.368  10.351   3.933  1.00  0.00     0.017 A 
HETATM    4  C   UNL     1      63.525   7.871   4.401  1.00  0.00     0.010 A 
HETATM    5  C   UNL     1      62.923  10.070   5.181  1.00  0.00     0.001 A 
HETATM    6  C   UNL     1      63.509   8.832   5.411  1.00  0.00     0.001 A 
ENDROOT
BRANCH   1   7
HETATM    7  C   UNL     1      61.787   9.829   1.563  1.00  0.00     0.418 C 
HETATM    8  F   UNL     1      60.648   9.194   1.188  1.00  0.00    -0.166 F 
HETATM    9  F   UNL     1      62.660   9.625   0.532  1.00  0.00    -0.166 F 
HETATM   10  F   UNL     1      61.504  11.162   1.539  1.00  0.00    -0.166 F 
ENDBRANCH   1   7
BRANCH   2  11
HETATM   11  C   UNL     1      62.998   7.040   2.098  1.00  0.00     0.203 C 
BRANCH  11  12
HETATM   12  O   UNL     1      61.789   6.296   2.133  1.00  0.00    -0.396 OA
HETATM   13  H   UNL     1      61.518   6.076   1.228  1.00  0.00     0.209 HD
ENDBRANCH  11  12
ENDBRANCH   2  11
TORSDOF 3
ENDMDL
MODEL 8
REMARK VINA RESULT:      -4.2      2.732      3.790
REMARK  3 active torsions:
REMARK  status: ('A' for Active; 'I' for Inactive)
REMARK    1  A    between atoms: C_1  and  C_2 
REMARK    2  A    between atoms: C_3  and  C_9 
REMARK    3  A    between atoms: O_7  and  C_9 
ROOT
HETATM    1  C   UNL     1      62.241   9.258   3.008  1.00  0.00     0.056 A 
HETATM    2  C   UNL     1      63.056   8.580   3.941  1.00  0.00    -0.020 A 
HETATM    3  C   UNL     1      61.856  10.588   3.284  1.00  0.00     0.017 A 
HETATM    4  C   UNL     1      63.482   9.260   5.100  1.00  0.00     0.010 A 
HETATM    5  C   UNL     1      62.284  11.244   4.438  1.00  0.00     0.001 A 
HETATM    6  C   UNL     1      63.105  10.581   5.341  1.00  0.00     0.001 A 
ENDROOT
BRANCH   1   7
HETATM    7  C   UNL     1      61.744   8.659   1.705  1.00  0.00     0.418 C 
HETATM    8  F   UNL     1      60.891   9.426   0.979  1.00  0.00    -0.166 F 
HETATM    9  F   UNL     1      61.071   7.490   1.920  1.00  0.00    -0.166 F 
HETATM   10  F   UNL     1      62.770   8.337   0.867  1.00  0.00    -0.166 F 
ENDBRANCH   1   7
BRANCH   2  11
HETATM   11  C   UNL     1      63.484   7.146   3.757  1.00  0.00     0.203 C 
BRANCH  11  12
HETATM   12  O   UNL     1      64.899   7.065   3.664  1.00  0.00    -0.396 OA
HETATM   13  H   UNL     1      65.143   6.396   3.006  1.00  0.00     0.209 HD
ENDBRANCH  11  12
ENDBRANCH   2  11
TORSDOF 3
ENDMDL
MODEL 9
REMARK VINA RESULT:      -4.1      2.926      4.327
REMARK  3 active torsions:
REMARK  status: ('A' for Active; 'I' for Inactive)
REMARK    1  A    between atoms: C_1  and  C_2 
REMARK    2  A    between atoms: C_3  and  C_9 
REMARK    3  A    between atoms: O_7  and  C_9 
ROOT
HETATM    1  C   UNL     1      63.096   9.004   3.869  1.00  0.00     0.056 A 
HETATM    2  C   UNL     1      63.042   7.923   2.961  1.00  0.00    -0.020 A 
HETATM    3  C   UNL     1      64.093   9.002   4.869  1.00  0.00     0.017 A 
HETATM    4  C   UNL     1      64.000   6.894   3.065  1.00  0.00     0.010 A 
HETATM    5  C   UNL     1      65.030   7.973   4.958  1.00  0.00     0.001 A 
HETATM    6  C   UNL     1      64.988   6.924   4.050  1.00  0.00     0.001 A 
ENDROOT
BRANCH   1   7
HETATM    7  C   UNL     1      62.153  10.194   3.847  1.00  0.00     0.418 C 
HETATM    8  F   UNL     1      62.305  11.098   4.847  1.00  0.00    -0.166 F 
HETATM    9  F   UNL     1      60.849   9.795   3.927  1.00  0.00    -0.166 F 
HETATM   10  F   UNL     1      62.246  10.897   2.683  1.00  0.00    -0.166 F 
ENDBRANCH   1   7
BRANCH   2  11
HETATM   11  C   UNL     1      61.990   7.814   1.887  1.00  0.00     0.203 C 
BRANCH  11  12
HETATM   12  O   UNL     1      62.413   8.496   0.716  1.00  0.00    -0.396 OA
HETATM   13  H   UNL     1      62.804   9.350   0.962  1.00  0.00     0.209 HD
ENDBRANCH  11  12
ENDBRANCH   2  11
TORSDOF 3
ENDMDL
