MODEL 1
REMARK VINA RESULT:      -5.0      0.000      0.000
REMARK  1 active torsions:
REMARK  status: ('A' for Active; 'I' for Inactive)
REMARK    1  A    between atoms: C_3  and  O_7 
ROOT
HETATM    1  N   UNL     1      62.470  11.666   4.863  1.00  0.00    -0.320 N 
ATOM      2  HN  UNL     1      62.073  12.605   4.843  1.00  0.00     0.169 HD
HETATM    3  C   UNL     1      63.203  11.123   5.796  1.00  0.00     0.222 A 
HETATM    4  N   UNL     1      63.575   9.845   5.516  1.00  0.00    -0.320 N 
HETATM    5  C   UNL     1      62.354  10.677   3.911  1.00  0.00     0.062 A 
HETATM    6  C   UNL     1      63.037   9.524   4.296  1.00  0.00     0.062 A 
HETATM    7  C   UNL     1      61.676  10.691   2.682  1.00  0.00     0.032 A 
HETATM    8  C   UNL     1      63.086   8.365   3.518  1.00  0.00     0.032 A 
HETATM    9  C   UNL     1      61.709   9.539   1.884  1.00  0.00     0.002 A 
HETATM   10  C   UNL     1      62.403   8.399   2.297  1.00  0.00     0.002 A 
HETATM   11  H   UNL     1      64.126   9.260   6.084  1.00  0.00     0.169 HD
ENDROOT
BRANCH   3  12
HETATM   12  O   UNL     1      63.548  11.753   6.897  1.00  0.00    -0.332 OA
HETATM   13  H   UNL     1      64.379  12.184   6.950  1.00  0.00     0.220 HD
ENDBRANCH   3  12
TORSDOF 1
ENDMDL
MODEL 2
REMARK VINA RESULT:      -4.8      1.552      1.981
REMARK  1 active torsions:
REMARK  status: ('A' for Active; 'I' for Inactive)
REMARK    1  A    between atoms: C_3  and  O_7 
ROOT
HETATM    1  N   UNL     1      61.689  11.077   2.590  1.00  0.00    -0.320 N 
ATOM      2  HN  UNL     1      61.257  11.809   2.027  1.00  0.00     0.169 HD
HETATM    3  C   UNL     1      62.062  11.140   3.840  1.00  0.00     0.222 A 
HETATM    4  N   UNL     1      62.609   9.983   4.299  1.00  0.00    -0.320 N 
HETATM    5  C   UNL     1      62.014   9.795   2.208  1.00  0.00     0.062 A 
HETATM    6  C   UNL     1      62.592   9.086   3.261  1.00  0.00     0.062 A 
HETATM    7  C   UNL     1      61.843   9.158   0.970  1.00  0.00     0.032 A 
HETATM    8  C   UNL     1      63.018   7.761   3.153  1.00  0.00     0.032 A 
HETATM    9  C   UNL     1      62.262   7.827   0.835  1.00  0.00     0.002 A 
HETATM   10  C   UNL     1      62.839   7.144   1.909  1.00  0.00     0.002 A 
HETATM   11  H   UNL     1      62.953   9.820   5.206  1.00  0.00     0.169 HD
ENDROOT
BRANCH   3  12
HETATM   12  O   UNL     1      61.921  12.219   4.578  1.00  0.00    -0.332 OA
HETATM   13  H   UNL     1      61.085  12.639   4.640  1.00  0.00     0.220 HD
ENDBRANCH   3  12
TORSDOF 1
ENDMDL
MODEL 3
REMARK VINA RESULT:      -4.8      1.704      2.214
REMARK  1 active torsions:
REMARK  status: ('A' for Active; 'I' for Inactive)
REMARK    1  A    between atoms: C_3  and  O_7 
ROOT
HETATM    1  N   UNL     1      62.818   9.574   5.710  1.00  0.00    -0.320 N 
ATOM      2  HN  UNL     1      62.821  10.187   6.525  1.00  0.00     0.169 HD
HETATM    3  C   UNL     1      63.117   8.305   5.659  1.00  0.00     0.222 A 
HETATM    4  N   UNL     1      63.015   7.775   4.411  1.00  0.00    -0.320 N 
HETATM    5  C   UNL     1      62.499   9.895   4.410  1.00  0.00     0.062 A 
HETATM    6  C   UNL     1      62.613   8.785   3.574  1.00  0.00     0.062 A 
HETATM    7  C   UNL     1      62.098  11.124   3.862  1.00  0.00     0.032 A 
HETATM    8  C   UNL     1      62.348   8.825   2.203  1.00  0.00     0.032 A 
HETATM    9  C   UNL     1      61.825  11.190   2.489  1.00  0.00     0.002 A 
HETATM   10  C   UNL     1      61.950  10.060   1.677  1.00  0.00     0.002 A 
HETATM   11  H   UNL     1      63.195   6.842   4.156  1.00  0.00     0.169 HD
ENDROOT
BRANCH   3  12
HETATM   12  O   UNL     1      63.483   7.609   6.714  1.00  0.00    -0.332 OA
HETATM   13  H   UNL     1      63.437   7.994   7.568  1.00  0.00     0.220 HD
ENDBRANCH   3  12
TORSDOF 1
ENDMDL
MODEL 4
REMARK VINA RESULT:      -4.7      1.725      2.608
REMARK  1 active torsions:
REMARK  status: ('A' for Active; 'I' for Inactive)
REMARK    1  A    between atoms: C_3  and  O_7 
ROOT
HETATM    1  N   UNL     1      63.067   7.868   4.288  1.00  0.00    -0.320 N 
ATOM      2  HN  UNL     1      63.249   6.921   3.956  1.00  0.00     0.169 HD
HETATM    3  C   UNL     1      63.198   8.333   5.501  1.00  0.00     0.222 A 
HETATM    4  N   UNL     1      62.871   9.648   5.613  1.00  0.00    -0.320 N 
HETATM    5  C   UNL     1      62.625   8.950   3.561  1.00  0.00     0.062 A 
HETATM    6  C   UNL     1      62.495  10.080   4.367  1.00  0.00     0.062 A 
HETATM    7  C   UNL     1      62.313   9.046   2.196  1.00  0.00     0.032 A 
HETATM    8  C   UNL     1      62.065  11.320   3.889  1.00  0.00     0.032 A 
HETATM    9  C   UNL     1      61.880  10.280   1.691  1.00  0.00     0.002 A 
HETATM   10  C   UNL     1      61.759  11.394   2.525  1.00  0.00     0.002 A 
HETATM   11  H   UNL     1      62.900  10.188   6.435  1.00  0.00     0.169 HD
ENDROOT
BRANCH   3  12
HETATM   12  O   UNL     1      63.605   7.598   6.512  1.00  0.00    -0.332 OA
HETATM   13  H   UNL     1      64.091   6.811   6.354  1.00  0.00     0.220 HD
ENDBRANCH   3  12
TORSDOF 1
ENDMDL
MODEL 5
REMARK VINA RESULT:      -4.3      1.651      2.703
REMARK  1 active torsions:
REMARK  status: ('A' for Active; 'I' for Inactive)
REMARK    1  A    between atoms: C_3  and  O_7 
ROOT
HETATM    1  N   UNL     1      63.403  10.365   5.485  1.00  0.00    -0.320 N 
ATOM      2  HN  UNL     1      63.773  10.740   6.358  1.00  0.00     0.169 HD
HETATM    3  C   UNL     1      62.551  10.922   4.669  1.00  0.00     0.222 A 
HETATM    4  N   UNL     1      62.259  10.154   3.586  1.00  0.00    -0.320 N 
HETATM    5  C   UNL     1      63.687   9.152   4.896  1.00  0.00     0.062 A 
HETATM    6  C   UNL     1      62.984   8.995   3.703  1.00  0.00     0.062 A 
HETATM    7  C   UNL     1      64.543   8.126   5.324  1.00  0.00     0.032 A 
HETATM    8  C   UNL     1      63.082   7.858   2.897  1.00  0.00     0.032 A 
HETATM    9  C   UNL     1      64.660   6.976   4.533  1.00  0.00     0.002 A 
HETATM   10  C   UNL     1      63.941   6.847   3.342  1.00  0.00     0.002 A 
HETATM   11  H   UNL     1      61.643  10.386   2.854  1.00  0.00     0.169 HD
ENDROOT
BRANCH   3  12
HETATM   12  O   UNL     1      62.027  12.110   4.878  1.00  0.00    -0.332 OA
HETATM   13  H   UNL     1      61.753  12.356   5.740  1.00  0.00     0.220 HD
ENDBRANCH   3  12
TORSDOF 1
ENDMDL
MODEL 6
REMARK VINA RESULT:      -4.0      6.197      7.332
REMARK  1 active torsions:
REMARK  status: ('A' for Active; 'I' for Inactive)
REMARK    1  A    between atoms: C_3  and  O_7 
ROOT
HETATM    1  N   UNL     1      66.609   6.818   5.885  1.00  0.00    -0.320 N 
ATOM      2  HN  UNL     1      66.331   6.821   4.904  1.00  0.00     0.169 HD
HETATM    3  C   UNL     1      66.600   7.816   6.726  1.00  0.00     0.222 A 
HETATM    4  N   UNL     1      67.035   7.479   7.969  1.00  0.00    -0.320 N 
HETATM    5  C   UNL     1      67.082   5.759   6.628  1.00  0.00     0.062 A 
HETATM    6  C   UNL     1      67.356   6.145   7.939  1.00  0.00     0.062 A 
HETATM    7  C   UNL     1      67.304   4.426   6.249  1.00  0.00     0.032 A 
HETATM    8  C   UNL     1      67.846   5.271   8.911  1.00  0.00     0.032 A 
HETATM    9  C   UNL     1      67.795   3.528   7.207  1.00  0.00     0.002 A 
HETATM   10  C   UNL     1      68.061   3.946   8.513  1.00  0.00     0.002 A 
HETATM   11  H   UNL     1      67.106   8.079   8.746  1.00  0.00     0.169 HD
ENDROOT
BRANCH   3  12
HETATM   12  O   UNL     1      66.208   9.028   6.399  1.00  0.00    -0.332 OA
HETATM   13  H   UNL     1      65.302   9.197   6.228  1.00  0.00     0.220 HD
ENDBRANCH   3  12
TORSDOF 1
ENDMDL
MODEL 7
REMARK VINA RESULT:      -4.0      3.460      4.197
REMARK  1 active torsions:
REMARK  status: ('A' for Active; 'I' for Inactive)
REMARK    1  A    between atoms: C_3  and  O_7 
ROOT
HETATM    1  N   UNL     1      62.155   8.716   0.612  1.00  0.00    -0.320 N 
ATOM      2  HN  UNL     1      61.893   8.977  -0.338  1.00  0.00     0.169 HD
HETATM    3  C   UNL     1      62.575   7.557   1.039  1.00  0.00     0.222 A 
HETATM    4  N   UNL     1      62.842   7.536   2.372  1.00  0.00    -0.320 N 
HETATM    5  C   UNL     1      62.147   9.506   1.741  1.00  0.00     0.062 A 
HETATM    6  C   UNL     1      62.574   8.791   2.859  1.00  0.00     0.062 A 
HETATM    7  C   UNL     1      61.786  10.853   1.889  1.00  0.00     0.032 A 
HETATM    8  C   UNL     1      62.664   9.346   4.137  1.00  0.00     0.032 A 
HETATM    9  C   UNL     1      61.868  11.434   3.162  1.00  0.00     0.002 A 
HETATM   10  C   UNL     1      62.299  10.691   4.264  1.00  0.00     0.002 A 
HETATM   11  H   UNL     1      63.167   6.766   2.891  1.00  0.00     0.169 HD
ENDROOT
BRANCH   3  12
HETATM   12  O   UNL     1      62.723   6.512   0.254  1.00  0.00    -0.332 OA
HETATM   13  H   UNL     1      62.726   6.622  -0.677  1.00  0.00     0.220 HD
ENDBRANCH   3  12
TORSDOF 1
ENDMDL
MODEL 8
REMARK VINA RESULT:      -3.9      4.374      5.268
REMARK  1 active torsions:
REMARK  status: ('A' for Active; 'I' for Inactive)
REMARK    1  A    between atoms: C_3  and  O_7 
ROOT
HETATM    1  N   UNL     1      65.824   6.302   8.028  1.00  0.00    -0.320 N 
ATOM      2  HN  UNL     1      65.472   5.640   8.719  1.00  0.00     0.169 HD
HETATM    3  C   UNL     1      67.001   6.865   7.980  1.00  0.00     0.222 A 
HETATM    4  N   UNL     1      67.156   7.706   6.923  1.00  0.00    -0.320 N 
HETATM    5  C   UNL     1      65.167   6.809   6.928  1.00  0.00     0.062 A 
HETATM    6  C   UNL     1      65.979   7.691   6.217  1.00  0.00     0.062 A 
HETATM    7  C   UNL     1      63.865   6.559   6.468  1.00  0.00     0.032 A 
HETATM    8  C   UNL     1      65.567   8.350   5.058  1.00  0.00     0.032 A 
HETATM    9  C   UNL     1      63.427   7.208   5.306  1.00  0.00     0.002 A 
HETATM   10  C   UNL     1      64.265   8.088   4.616  1.00  0.00     0.002 A 
HETATM   11  H   UNL     1      67.961   8.227   6.705  1.00  0.00     0.169 HD
ENDROOT
BRANCH   3  12
HETATM   12  O   UNL     1      67.942   6.639   8.871  1.00  0.00    -0.332 OA
HETATM   13  H   UNL     1      68.732   7.143   8.856  1.00  0.00     0.220 HD
ENDBRANCH   3  12
TORSDOF 1
ENDMDL
MODEL 9
REMARK VINA RESULT:      -3.9      2.904      3.884
REMARK  1 active torsions:
REMARK  status: ('A' for Active; 'I' for Inactive)
REMARK    1  A    between atoms: C_3  and  O_7 
ROOT
HETATM    1  N   UNL     1      66.118   6.844   5.261  1.00  0.00    -0.320 N 
ATOM      2  HN  UNL     1      66.667   6.002   5.089  1.00  0.00     0.169 HD
HETATM    3  C   UNL     1      66.280   7.729   6.206  1.00  0.00     0.222 A 
HETATM    4  N   UNL     1      65.375   8.742   6.158  1.00  0.00    -0.320 N 
HETATM    5  C   UNL     1      65.036   7.311   4.547  1.00  0.00     0.062 A 
HETATM    6  C   UNL     1      64.551   8.500   5.088  1.00  0.00     0.062 A 
HETATM    7  C   UNL     1      64.407   6.768   3.416  1.00  0.00     0.032 A 
HETATM    8  C   UNL     1      63.459   9.194   4.563  1.00  0.00     0.032 A 
HETATM    9  C   UNL     1      63.309   7.446   2.869  1.00  0.00     0.002 A 
HETATM   10  C   UNL     1      62.845   8.636   3.435  1.00  0.00     0.002 A 
HETATM   11  H   UNL     1      65.321   9.507   6.775  1.00  0.00     0.169 HD
ENDROOT
BRANCH   3  12
HETATM   12  O   UNL     1      67.226   7.644   7.116  1.00  0.00    -0.332 OA
HETATM   13  H   UNL     1      67.567   8.423   7.511  1.00  0.00     0.220 HD
ENDBRANCH   3  12
TORSDOF 1
ENDMDL
