MODEL 1
REMARK VINA RESULT:      -3.9      0.000      0.000
REMARK  0 active torsions:
REMARK  status: ('A' for Active; 'I' for Inactive)
ROOT
HETATM    1  O   UNL     1      65.006   6.862   7.662  1.00  0.00    -0.298 OA
HETATM    2  C   UNL     1      66.224   7.064   7.642  1.00  0.00     0.127 C 
HETATM    3  C   UNL     1      67.075   6.750   8.851  1.00  0.00     0.078 C 
HETATM    4  C   UNL     1      66.883   7.669   6.424  1.00  0.00     0.078 C 
HETATM    5  C   UNL     1      67.841   6.744   5.684  1.00  0.00     0.007 C 
HETATM    6  C   UNL     1      68.075   5.618   8.656  1.00  0.00     0.007 C 
HETATM    7  C   UNL     1      67.322   5.316   5.496  1.00  0.00     0.000 C 
HETATM    8  C   UNL     1      67.513   4.396   7.925  1.00  0.00     0.000 C 
HETATM    9  C   UNL     1      67.932   4.288   6.455  1.00  0.00     0.000 C 
ENDROOT
TORSDOF 0
ENDMDL
MODEL 2
REMARK VINA RESULT:      -3.8      6.235      7.896
REMARK  0 active torsions:
REMARK  status: ('A' for Active; 'I' for Inactive)
ROOT
HETATM    1  O   UNL     1      60.219   7.888   2.982  1.00  0.00    -0.298 OA
HETATM    2  C   UNL     1      61.333   8.229   2.572  1.00  0.00     0.127 C 
HETATM    3  C   UNL     1      61.467   9.286   1.500  1.00  0.00     0.078 C 
HETATM    4  C   UNL     1      62.583   7.565   3.101  1.00  0.00     0.078 C 
HETATM    5  C   UNL     1      63.498   8.472   3.914  1.00  0.00     0.007 C 
HETATM    6  C   UNL     1      62.131  10.579   1.954  1.00  0.00     0.007 C 
HETATM    7  C   UNL     1      62.769   9.371   4.917  1.00  0.00     0.000 C 
HETATM    8  C   UNL     1      61.651  11.094   3.314  1.00  0.00     0.000 C 
HETATM    9  C   UNL     1      62.622  10.829   4.470  1.00  0.00     0.000 C 
ENDROOT
TORSDOF 0
ENDMDL
MODEL 3
REMARK VINA RESULT:      -3.8      6.633      7.581
REMARK  0 active torsions:
REMARK  status: ('A' for Active; 'I' for Inactive)
ROOT
HETATM    1  O   UNL     1      61.339  10.699   3.940  1.00  0.00    -0.298 OA
HETATM    2  C   UNL     1      62.114  10.031   3.250  1.00  0.00     0.127 C 
HETATM    3  C   UNL     1      63.098   9.084   3.898  1.00  0.00     0.078 C 
HETATM    4  C   UNL     1      62.127  10.179   1.746  1.00  0.00     0.078 C 
HETATM    5  C   UNL     1      61.664   8.948   0.976  1.00  0.00     0.007 C 
HETATM    6  C   UNL     1      62.853   7.609   3.611  1.00  0.00     0.007 C 
HETATM    7  C   UNL     1      60.414   8.275   1.549  1.00  0.00     0.000 C 
HETATM    8  C   UNL     1      61.386   7.181   3.704  1.00  0.00     0.000 C 
HETATM    9  C   UNL     1      60.691   6.999   2.350  1.00  0.00     0.000 C 
ENDROOT
TORSDOF 0
ENDMDL
MODEL 4
REMARK VINA RESULT:      -3.7      6.439      7.949
REMARK  0 active torsions:
REMARK  status: ('A' for Active; 'I' for Inactive)
ROOT
HETATM    1  O   UNL     1      60.059   7.520   3.824  1.00  0.00    -0.298 OA
HETATM    2  C   UNL     1      61.262   7.606   3.559  1.00  0.00     0.127 C 
HETATM    3  C   UNL     1      61.796   7.098   2.239  1.00  0.00     0.078 C 
HETATM    4  C   UNL     1      62.232   8.182   4.564  1.00  0.00     0.078 C 
HETATM    5  C   UNL     1      62.875   9.502   4.156  1.00  0.00     0.007 C 
HETATM    6  C   UNL     1      62.340   8.174   1.309  1.00  0.00     0.007 C 
HETATM    7  C   UNL     1      61.904  10.514   3.540  1.00  0.00     0.000 C 
HETATM    8  C   UNL     1      61.467   9.428   1.213  1.00  0.00     0.000 C 
HETATM    9  C   UNL     1      61.988  10.626   2.015  1.00  0.00     0.000 C 
ENDROOT
TORSDOF 0
ENDMDL
MODEL 5
REMARK VINA RESULT:      -3.5      2.226      3.653
REMARK  0 active torsions:
REMARK  status: ('A' for Active; 'I' for Inactive)
ROOT
HETATM    1  O   UNL     1      62.948   7.833   6.909  1.00  0.00    -0.298 OA
HETATM    2  C   UNL     1      63.636   7.185   6.114  1.00  0.00     0.127 C 
HETATM    3  C   UNL     1      64.333   7.873   4.963  1.00  0.00     0.078 C 
HETATM    4  C   UNL     1      63.761   5.685   6.250  1.00  0.00     0.078 C 
HETATM    5  C   UNL     1      65.154   5.186   6.612  1.00  0.00     0.007 C 
HETATM    6  C   UNL     1      65.854   7.866   5.037  1.00  0.00     0.007 C 
HETATM    7  C   UNL     1      65.851   5.995   7.710  1.00  0.00     0.000 C 
HETATM    8  C   UNL     1      66.423   8.186   6.422  1.00  0.00     0.000 C 
HETATM    9  C   UNL     1      66.923   6.964   7.200  1.00  0.00     0.000 C 
ENDROOT
TORSDOF 0
ENDMDL
MODEL 6
REMARK VINA RESULT:      -3.4      4.813      5.952
REMARK  0 active torsions:
REMARK  status: ('A' for Active; 'I' for Inactive)
ROOT
HETATM    1  O   UNL     1      62.803   7.952   6.625  1.00  0.00    -0.298 OA
HETATM    2  C   UNL     1      63.363   8.424   5.631  1.00  0.00     0.127 C 
HETATM    3  C   UNL     1      64.455   7.654   4.926  1.00  0.00     0.078 C 
HETATM    4  C   UNL     1      62.998   9.800   5.124  1.00  0.00     0.078 C 
HETATM    5  C   UNL     1      62.327   9.825   3.757  1.00  0.00     0.007 C 
HETATM    6  C   UNL     1      64.110   7.196   3.515  1.00  0.00     0.007 C 
HETATM    7  C   UNL     1      61.246   8.758   3.563  1.00  0.00     0.000 C 
HETATM    8  C   UNL     1      62.705   6.608   3.366  1.00  0.00     0.000 C 
HETATM    9  C   UNL     1      61.686   7.556   2.722  1.00  0.00     0.000 C 
ENDROOT
TORSDOF 0
ENDMDL
MODEL 7
REMARK VINA RESULT:      -3.4     11.268     12.198
REMARK  0 active torsions:
REMARK  status: ('A' for Active; 'I' for Inactive)
ROOT
HETATM    1  O   UNL     1      59.159   0.742  11.116  1.00  0.00    -0.298 OA
HETATM    2  C   UNL     1      58.878   1.638  11.918  1.00  0.00     0.127 C 
HETATM    3  C   UNL     1      57.894   2.723  11.544  1.00  0.00     0.078 C 
HETATM    4  C   UNL     1      59.544   1.694  13.273  1.00  0.00     0.078 C 
HETATM    5  C   UNL     1      58.615   1.453  14.457  1.00  0.00     0.007 C 
HETATM    6  C   UNL     1      56.595   2.712  12.339  1.00  0.00     0.007 C 
HETATM    7  C   UNL     1      57.634   0.293  14.265  1.00  0.00     0.000 C 
HETATM    8  C   UNL     1      55.983   1.323  12.533  1.00  0.00     0.000 C 
HETATM    9  C   UNL     1      56.203   0.723  13.927  1.00  0.00     0.000 C 
ENDROOT
TORSDOF 0
ENDMDL
MODEL 8
REMARK VINA RESULT:      -3.3     11.716     12.514
REMARK  0 active torsions:
REMARK  status: ('A' for Active; 'I' for Inactive)
ROOT
HETATM    1  O   UNL     1      56.957  -0.870  13.186  1.00  0.00    -0.298 OA
HETATM    2  C   UNL     1      57.056   0.206  13.782  1.00  0.00     0.127 C 
HETATM    3  C   UNL     1      58.349   0.591  14.464  1.00  0.00     0.078 C 
HETATM    4  C   UNL     1      55.874   1.142  13.881  1.00  0.00     0.078 C 
HETATM    5  C   UNL     1      56.035   2.463  13.138  1.00  0.00     0.007 C 
HETATM    6  C   UNL     1      59.066   1.787  13.852  1.00  0.00     0.007 C 
HETATM    7  C   UNL     1      56.641   2.332  11.738  1.00  0.00     0.000 C 
HETATM    8  C   UNL     1      59.119   1.779  12.322  1.00  0.00     0.000 C 
HETATM    9  C   UNL     1      58.119   2.725  11.648  1.00  0.00     0.000 C 
ENDROOT
TORSDOF 0
ENDMDL
MODEL 9
REMARK VINA RESULT:      -3.3     11.271     12.293
REMARK  0 active torsions:
REMARK  status: ('A' for Active; 'I' for Inactive)
ROOT
HETATM    1  O   UNL     1      59.582   0.645  11.209  1.00  0.00    -0.298 OA
HETATM    2  C   UNL     1      59.744   0.496  12.424  1.00  0.00     0.127 C 
HETATM    3  C   UNL     1      59.625   1.672  13.365  1.00  0.00     0.078 C 
HETATM    4  C   UNL     1      60.106  -0.858  12.991  1.00  0.00     0.078 C 
HETATM    5  C   UNL     1      59.038  -1.492  13.873  1.00  0.00     0.007 C 
HETATM    6  C   UNL     1      58.450   1.606  14.331  1.00  0.00     0.007 C 
HETATM    7  C   UNL     1      57.614  -1.382  13.322  1.00  0.00     0.000 C 
HETATM    8  C   UNL     1      57.133   1.151  13.695  1.00  0.00     0.000 C 
HETATM    9  C   UNL     1      56.756  -0.304  13.993  1.00  0.00     0.000 C 
ENDROOT
TORSDOF 0
ENDMDL
