MODEL 1
REMARK VINA RESULT:      -4.6      0.000      0.000
REMARK  5 active torsions:
REMARK  status: ('A' for Active; 'I' for Inactive)
REMARK    1  A    between atoms: CA_3  and  C_7 
REMARK    2  A    between atoms: C_5  and  C_9 
REMARK    3  A    between atoms: C_7  and  O_8 
REMARK    4  A    between atoms: C_9  and  C_10 
REMARK    5  A    between atoms: C_10  and  C_11 
ROOT
HETATM    1  N   UNL     1      62.156  10.813   3.850  1.00  0.00    -0.346 N 
ATOM      2  HN  UNL     1      61.651  11.693   3.738  1.00  0.00     0.167 HD
HETATM    3  CA  UNL     1      62.900  10.415   4.941  1.00  0.00     0.049 A 
HETATM    4  N   UNL     1      62.966   8.786   3.493  1.00  0.00    -0.354 N 
HETATM    5  C   UNL     1      62.229   9.825   2.983  1.00  0.00     0.081 A 
HETATM    6  C   UNL     1      63.404   9.149   4.734  1.00  0.00     0.116 A 
HETATM    7  H   UNL     1      63.147   7.929   3.044  1.00  0.00     0.166 HD
ENDROOT
BRANCH   5   8
HETATM    8  C   UNL     1      61.614   9.767   1.623  1.00  0.00     0.076 C 
BRANCH   8   9
HETATM    9  C   UNL     1      62.177   8.636   0.759  1.00  0.00     0.007 C 
BRANCH   9  10
HETATM   10  C   UNL     1      61.115   7.627   0.307  1.00  0.00    -0.004 C 
HETATM   11  C   UNL     1      59.713   8.117   0.634  1.00  0.00     0.005 C 
ENDBRANCH   9  10
ENDBRANCH   8   9
ENDBRANCH   5   8
BRANCH   3  12
HETATM   12  C   UNL     1      63.036  11.306   6.127  1.00  0.00     0.222 C 
BRANCH  12  13
HETATM   13  O   UNL     1      64.407  11.507   6.470  1.00  0.00    -0.395 OA
HETATM   14  H   UNL     1      64.627  12.448   6.381  1.00  0.00     0.209 HD
ENDBRANCH  12  13
ENDBRANCH   3  12
TORSDOF 5
ENDMDL
MODEL 2
REMARK VINA RESULT:      -4.4      2.289      3.283
REMARK  5 active torsions:
REMARK  status: ('A' for Active; 'I' for Inactive)
REMARK    1  A    between atoms: CA_3  and  C_7 
REMARK    2  A    between atoms: C_5  and  C_9 
REMARK    3  A    between atoms: C_7  and  O_8 
REMARK    4  A    between atoms: C_9  and  C_10 
REMARK    5  A    between atoms: C_10  and  C_11 
ROOT
HETATM    1  N   UNL     1      64.582   9.016   5.477  1.00  0.00    -0.346 N 
ATOM      2  HN  UNL     1      64.644   9.762   6.170  1.00  0.00     0.167 HD
HETATM    3  CA  UNL     1      65.446   7.952   5.320  1.00  0.00     0.049 A 
HETATM    4  N   UNL     1      63.880   7.731   3.819  1.00  0.00    -0.354 N 
HETATM    5  C   UNL     1      63.661   8.873   4.547  1.00  0.00     0.081 A 
HETATM    6  C   UNL     1      65.014   7.138   4.295  1.00  0.00     0.116 A 
HETATM    7  H   UNL     1      63.318   7.396   3.083  1.00  0.00     0.166 HD
ENDROOT
BRANCH   5   8
HETATM    8  C   UNL     1      62.506   9.778   4.271  1.00  0.00     0.076 C 
BRANCH   8   9
HETATM    9  C   UNL     1      61.666   9.330   3.072  1.00  0.00     0.007 C 
BRANCH   9  10
HETATM   10  C   UNL     1      61.925  10.151   1.804  1.00  0.00    -0.004 C 
HETATM   11  C   UNL     1      61.797  11.642   2.076  1.00  0.00     0.005 C 
ENDBRANCH   9  10
ENDBRANCH   8   9
ENDBRANCH   5   8
BRANCH   3  12
HETATM   12  C   UNL     1      66.624   7.798   6.219  1.00  0.00     0.222 C 
BRANCH  12  13
HETATM   13  O   UNL     1      66.829   8.968   7.009  1.00  0.00    -0.395 OA
HETATM   14  H   UNL     1      67.773   9.060   7.210  1.00  0.00     0.209 HD
ENDBRANCH  12  13
ENDBRANCH   3  12
TORSDOF 5
ENDMDL
MODEL 3
REMARK VINA RESULT:      -4.3      2.742      4.913
REMARK  5 active torsions:
REMARK  status: ('A' for Active; 'I' for Inactive)
REMARK    1  A    between atoms: CA_3  and  C_7 
REMARK    2  A    between atoms: C_5  and  C_9 
REMARK    3  A    between atoms: C_7  and  O_8 
REMARK    4  A    between atoms: C_9  and  C_10 
REMARK    5  A    between atoms: C_10  and  C_11 
ROOT
HETATM    1  N   UNL     1      64.503   9.150   5.419  1.00  0.00    -0.346 N 
ATOM      2  HN  UNL     1      65.200   9.338   6.140  1.00  0.00     0.167 HD
HETATM    3  CA  UNL     1      63.394   9.913   5.116  1.00  0.00     0.049 A 
HETATM    4  N   UNL     1      63.410   8.229   3.731  1.00  0.00    -0.354 N 
HETATM    5  C   UNL     1      64.479   8.131   4.586  1.00  0.00     0.081 A 
HETATM    6  C   UNL     1      62.708   9.353   4.059  1.00  0.00     0.116 A 
HETATM    7  H   UNL     1      63.188   7.600   3.007  1.00  0.00     0.166 HD
ENDROOT
BRANCH   5   8
HETATM    8  C   UNL     1      65.447   6.996   4.516  1.00  0.00     0.076 C 
BRANCH   8   9
HETATM    9  C   UNL     1      66.886   7.416   4.828  1.00  0.00     0.007 C 
BRANCH   9  10
HETATM   10  C   UNL     1      67.514   6.629   5.983  1.00  0.00    -0.004 C 
HETATM   11  C   UNL     1      66.862   6.982   7.311  1.00  0.00     0.005 C 
ENDBRANCH   9  10
ENDBRANCH   8   9
ENDBRANCH   5   8
BRANCH   3  12
HETATM   12  C   UNL     1      63.107  11.161   5.876  1.00  0.00     0.222 C 
BRANCH  12  13
HETATM   13  O   UNL     1      64.278  11.654   6.526  1.00  0.00    -0.395 OA
HETATM   14  H   UNL     1      64.021  12.182   7.297  1.00  0.00     0.209 HD
ENDBRANCH  12  13
ENDBRANCH   3  12
TORSDOF 5
ENDMDL
MODEL 4
REMARK VINA RESULT:      -4.1      3.684      6.040
REMARK  5 active torsions:
REMARK  status: ('A' for Active; 'I' for Inactive)
REMARK    1  A    between atoms: CA_3  and  C_7 
REMARK    2  A    between atoms: C_5  and  C_9 
REMARK    3  A    between atoms: C_7  and  O_8 
REMARK    4  A    between atoms: C_9  and  C_10 
REMARK    5  A    between atoms: C_10  and  C_11 
ROOT
HETATM    1  N   UNL     1      65.020   8.808   5.802  1.00  0.00    -0.346 N 
ATOM      2  HN  UNL     1      65.510   9.237   6.588  1.00  0.00     0.167 HD
HETATM    3  CA  UNL     1      63.926   9.313   5.130  1.00  0.00     0.049 A 
HETATM    4  N   UNL     1      64.449   7.424   4.174  1.00  0.00    -0.354 N 
HETATM    5  C   UNL     1      65.302   7.660   5.222  1.00  0.00     0.081 A 
HETATM    6  C   UNL     1      63.565   8.463   4.106  1.00  0.00     0.116 A 
HETATM    7  H   UNL     1      64.470   6.644   3.574  1.00  0.00     0.166 HD
ENDROOT
BRANCH   5   8
HETATM    8  C   UNL     1      66.387   6.703   5.591  1.00  0.00     0.076 C 
BRANCH   8   9
HETATM    9  C   UNL     1      66.932   6.930   7.004  1.00  0.00     0.007 C 
BRANCH   9  10
HETATM   10  C   UNL     1      67.809   5.780   7.512  1.00  0.00    -0.004 C 
HETATM   11  C   UNL     1      68.075   5.906   9.004  1.00  0.00     0.005 C 
ENDBRANCH   9  10
ENDBRANCH   8   9
ENDBRANCH   5   8
BRANCH   3  12
HETATM   12  C   UNL     1      63.331  10.619   5.529  1.00  0.00     0.222 C 
BRANCH  12  13
HETATM   13  O   UNL     1      64.256  11.400   6.284  1.00  0.00    -0.395 OA
HETATM   14  H   UNL     1      64.722  12.011   5.691  1.00  0.00     0.209 HD
ENDBRANCH  12  13
ENDBRANCH   3  12
TORSDOF 5
ENDMDL
MODEL 5
REMARK VINA RESULT:      -3.9      2.674      4.664
REMARK  5 active torsions:
REMARK  status: ('A' for Active; 'I' for Inactive)
REMARK    1  A    between atoms: CA_3  and  C_7 
REMARK    2  A    between atoms: C_5  and  C_9 
REMARK    3  A    between atoms: C_7  and  O_8 
REMARK    4  A    between atoms: C_9  and  C_10 
REMARK    5  A    between atoms: C_10  and  C_11 
ROOT
HETATM    1  N   UNL     1      63.037   9.056   3.561  1.00  0.00    -0.346 N 
ATOM      2  HN  UNL     1      63.115   8.382   2.799  1.00  0.00     0.167 HD
HETATM    3  CA  UNL     1      62.379  10.268   3.533  1.00  0.00     0.049 A 
HETATM    4  N   UNL     1      63.201  10.033   5.539  1.00  0.00    -0.354 N 
HETATM    5  C   UNL     1      63.542   8.947   4.772  1.00  0.00     0.081 A 
HETATM    6  C   UNL     1      62.466  10.883   4.764  1.00  0.00     0.116 A 
HETATM    7  H   UNL     1      63.442  10.174   6.483  1.00  0.00     0.166 HD
ENDROOT
BRANCH   5   8
HETATM    8  C   UNL     1      64.370   7.827   5.309  1.00  0.00     0.076 C 
BRANCH   8   9
HETATM    9  C   UNL     1      65.116   7.056   4.217  1.00  0.00     0.007 C 
BRANCH   9  10
HETATM   10  C   UNL     1      66.512   6.590   4.644  1.00  0.00    -0.004 C 
HETATM   11  C   UNL     1      67.472   7.764   4.769  1.00  0.00     0.005 C 
ENDBRANCH   9  10
ENDBRANCH   8   9
ENDBRANCH   5   8
BRANCH   3  12
HETATM   12  C   UNL     1      61.681  10.720   2.297  1.00  0.00     0.222 C 
BRANCH  12  13
HETATM   13  O   UNL     1      62.099  12.030   1.915  1.00  0.00    -0.395 OA
HETATM   14  H   UNL     1      62.600  12.433   2.641  1.00  0.00     0.209 HD
ENDBRANCH  12  13
ENDBRANCH   3  12
TORSDOF 5
ENDMDL
MODEL 6
REMARK VINA RESULT:      -3.9      3.521      4.783
REMARK  5 active torsions:
REMARK  status: ('A' for Active; 'I' for Inactive)
REMARK    1  A    between atoms: CA_3  and  C_7 
REMARK    2  A    between atoms: C_5  and  C_9 
REMARK    3  A    between atoms: C_7  and  O_8 
REMARK    4  A    between atoms: C_9  and  C_10 
REMARK    5  A    between atoms: C_10  and  C_11 
ROOT
HETATM    1  N   UNL     1      64.801   7.441   6.718  1.00  0.00    -0.346 N 
ATOM      2  HN  UNL     1      63.977   7.211   7.274  1.00  0.00     0.167 HD
HETATM    3  CA  UNL     1      66.120   7.224   7.059  1.00  0.00     0.049 A 
HETATM    4  N   UNL     1      66.113   8.128   5.075  1.00  0.00    -0.354 N 
HETATM    5  C   UNL     1      64.824   8.007   5.529  1.00  0.00     0.081 A 
HETATM    6  C   UNL     1      66.948   7.640   6.038  1.00  0.00     0.116 A 
HETATM    7  H   UNL     1      66.388   8.501   4.206  1.00  0.00     0.166 HD
ENDROOT
BRANCH   5   8
HETATM    8  C   UNL     1      63.654   8.469   4.725  1.00  0.00     0.076 C 
BRANCH   8   9
HETATM    9  C   UNL     1      63.086   9.807   5.205  1.00  0.00     0.007 C 
BRANCH   9  10
HETATM   10  C   UNL     1      62.238  10.525   4.150  1.00  0.00    -0.004 C 
HETATM   11  C   UNL     1      62.151   9.713   2.866  1.00  0.00     0.005 C 
ENDBRANCH   9  10
ENDBRANCH   8   9
ENDBRANCH   5   8
BRANCH   3  12
HETATM   12  C   UNL     1      66.468   6.589   8.360  1.00  0.00     0.222 C 
BRANCH  12  13
HETATM   13  O   UNL     1      67.865   6.697   8.632  1.00  0.00    -0.395 OA
HETATM   14  H   UNL     1      68.184   7.566   8.344  1.00  0.00     0.209 HD
ENDBRANCH  12  13
ENDBRANCH   3  12
TORSDOF 5
ENDMDL
MODEL 7
REMARK VINA RESULT:      -3.8      3.434      5.814
REMARK  5 active torsions:
REMARK  status: ('A' for Active; 'I' for Inactive)
REMARK    1  A    between atoms: CA_3  and  C_7 
REMARK    2  A    between atoms: C_5  and  C_9 
REMARK    3  A    between atoms: C_7  and  O_8 
REMARK    4  A    between atoms: C_9  and  C_10 
REMARK    5  A    between atoms: C_10  and  C_11 
ROOT
HETATM    1  N   UNL     1      64.321   9.403   5.434  1.00  0.00    -0.346 N 
ATOM      2  HN  UNL     1      64.600  10.076   6.148  1.00  0.00     0.167 HD
HETATM    3  CA  UNL     1      63.244   9.498   4.578  1.00  0.00     0.049 A 
HETATM    4  N   UNL     1      64.280   7.641   4.098  1.00  0.00    -0.354 N 
HETATM    5  C   UNL     1      64.917   8.266   5.140  1.00  0.00     0.081 A 
HETATM    6  C   UNL     1      63.212   8.409   3.733  1.00  0.00     0.116 A 
HETATM    7  H   UNL     1      64.547   6.788   3.684  1.00  0.00     0.166 HD
ENDROOT
BRANCH   5   8
HETATM    8  C   UNL     1      66.122   7.680   5.798  1.00  0.00     0.076 C 
BRANCH   8   9
HETATM    9  C   UNL     1      65.795   6.928   7.090  1.00  0.00     0.007 C 
BRANCH   9  10
HETATM   10  C   UNL     1      67.032   6.576   7.923  1.00  0.00    -0.004 C 
HETATM   11  C   UNL     1      66.707   6.542   9.408  1.00  0.00     0.005 C 
ENDBRANCH   9  10
ENDBRANCH   8   9
ENDBRANCH   5   8
BRANCH   3  12
HETATM   12  C   UNL     1      62.336  10.678   4.635  1.00  0.00     0.222 C 
BRANCH  12  13
HETATM   13  O   UNL     1      61.233  10.526   3.743  1.00  0.00    -0.395 OA
HETATM   14  H   UNL     1      61.133   9.590   3.509  1.00  0.00     0.209 HD
ENDBRANCH  12  13
ENDBRANCH   3  12
TORSDOF 5
ENDMDL
MODEL 8
REMARK VINA RESULT:      -3.6     13.604     14.444
REMARK  5 active torsions:
REMARK  status: ('A' for Active; 'I' for Inactive)
REMARK    1  A    between atoms: CA_3  and  C_7 
REMARK    2  A    between atoms: C_5  and  C_9 
REMARK    3  A    between atoms: C_7  and  O_8 
REMARK    4  A    between atoms: C_9  and  C_10 
REMARK    5  A    between atoms: C_10  and  C_11 
ROOT
HETATM    1  N   UNL     1      55.666   2.672  14.230  1.00  0.00    -0.346 N 
ATOM      2  HN  UNL     1      55.868   2.997  15.175  1.00  0.00     0.167 HD
HETATM    3  CA  UNL     1      54.764   3.215  13.339  1.00  0.00     0.049 A 
HETATM    4  N   UNL     1      55.720   1.532  12.334  1.00  0.00    -0.354 N 
HETATM    5  C   UNL     1      56.213   1.646  13.610  1.00  0.00     0.081 A 
HETATM    6  C   UNL     1      54.794   2.518  12.149  1.00  0.00     0.116 A 
HETATM    7  H   UNL     1      55.987   0.858  11.668  1.00  0.00     0.166 HD
ENDROOT
BRANCH   5   8
HETATM    8  C   UNL     1      57.237   0.704  14.150  1.00  0.00     0.076 C 
BRANCH   8   9
HETATM    9  C   UNL     1      58.559   1.392  14.502  1.00  0.00     0.007 C 
BRANCH   9  10
HETATM   10  C   UNL     1      59.401   1.759  13.276  1.00  0.00    -0.004 C 
HETATM   11  C   UNL     1      60.101   0.537  12.701  1.00  0.00     0.005 C 
ENDBRANCH   9  10
ENDBRANCH   8   9
ENDBRANCH   5   8
BRANCH   3  12
HETATM   12  C   UNL     1      53.955   4.407  13.716  1.00  0.00     0.222 C 
BRANCH  12  13
HETATM   13  O   UNL     1      54.526   5.088  14.832  1.00  0.00    -0.395 OA
HETATM   14  H   UNL     1      54.724   4.449  15.534  1.00  0.00     0.209 HD
ENDBRANCH  12  13
ENDBRANCH   3  12
TORSDOF 5
ENDMDL
MODEL 9
REMARK VINA RESULT:      -3.6     10.446     11.615
REMARK  5 active torsions:
REMARK  status: ('A' for Active; 'I' for Inactive)
REMARK    1  A    between atoms: CA_3  and  C_7 
REMARK    2  A    between atoms: C_5  and  C_9 
REMARK    3  A    between atoms: C_7  and  O_8 
REMARK    4  A    between atoms: C_9  and  C_10 
REMARK    5  A    between atoms: C_10  and  C_11 
ROOT
HETATM    1  N   UNL     1      58.568   3.833  10.528  1.00  0.00    -0.346 N 
ATOM      2  HN  UNL     1      58.583   4.487  11.311  1.00  0.00     0.167 HD
HETATM    3  CA  UNL     1      58.745   4.129   9.192  1.00  0.00     0.049 A 
HETATM    4  N   UNL     1      58.458   1.973   9.335  1.00  0.00    -0.354 N 
HETATM    5  C   UNL     1      58.375   2.531  10.586  1.00  0.00     0.081 A 
HETATM    6  C   UNL     1      58.687   2.977   8.439  1.00  0.00     0.116 A 
HETATM    7  H   UNL     1      58.370   1.016   9.121  1.00  0.00     0.166 HD
ENDROOT
BRANCH   5   8
HETATM    8  C   UNL     1      58.108   1.710  11.804  1.00  0.00     0.076 C 
BRANCH   8   9
HETATM    9  C   UNL     1      59.116   1.960  12.929  1.00  0.00     0.007 C 
BRANCH   9  10
HETATM   10  C   UNL     1      58.724   1.303  14.256  1.00  0.00    -0.004 C 
HETATM   11  C   UNL     1      58.618  -0.208  14.114  1.00  0.00     0.005 C 
ENDBRANCH   9  10
ENDBRANCH   8   9
ENDBRANCH   5   8
BRANCH   3  12
HETATM   12  C   UNL     1      58.990   5.533   8.758  1.00  0.00     0.222 C 
BRANCH  12  13
HETATM   13  O   UNL     1      58.593   6.464   9.764  1.00  0.00    -0.395 OA
HETATM   14  H   UNL     1      59.379   6.899  10.129  1.00  0.00     0.209 HD
ENDBRANCH  12  13
ENDBRANCH   3  12
TORSDOF 5
ENDMDL
