MODEL 1
REMARK VINA RESULT:      -2.9      0.000      0.000
REMARK  0 active torsions:
REMARK  status: ('A' for Active; 'I' for Inactive)
ROOT
HETATM    1  C   UNL     1      61.954  10.473   2.462  1.00  0.00     0.041 A 
HETATM    2  S   UNL     1      62.369   8.440   3.972  1.00  0.00    -0.112 SA
HETATM    3  C   UNL     1      62.114   9.363   1.587  1.00  0.00     0.031 A 
HETATM    4  C   UNL     1      62.345   8.191   2.278  1.00  0.00     0.051 A 
HETATM    5  C   UNL     1      62.070  10.115   3.785  1.00  0.00     0.073 A 
HETATM    6 CL   UNL     1      61.653  12.058   1.900  1.00  0.00    -0.084 Cl
ENDROOT
TORSDOF 0
ENDMDL
MODEL 2
REMARK VINA RESULT:      -2.9      0.934      1.970
REMARK  0 active torsions:
REMARK  status: ('A' for Active; 'I' for Inactive)
ROOT
HETATM    1  C   UNL     1      62.076  10.687   3.068  1.00  0.00     0.041 A 
HETATM    2  S   UNL     1      62.659   8.385   4.041  1.00  0.00    -0.112 SA
HETATM    3  C   UNL     1      62.382  10.908   4.439  1.00  0.00     0.031 A 
HETATM    4  C   UNL     1      62.718   9.738   5.088  1.00  0.00     0.051 A 
HETATM    5  C   UNL     1      62.185   9.361   2.718  1.00  0.00     0.073 A 
HETATM    6 CL   UNL     1      61.627  11.946   2.004  1.00  0.00    -0.084 Cl
ENDROOT
TORSDOF 0
ENDMDL
MODEL 3
REMARK VINA RESULT:      -2.8      1.632      2.278
REMARK  0 active torsions:
REMARK  status: ('A' for Active; 'I' for Inactive)
ROOT
HETATM    1  C   UNL     1      62.286   9.379   2.205  1.00  0.00     0.041 A 
HETATM    2  S   UNL     1      62.855   9.415   4.708  1.00  0.00    -0.112 SA
HETATM    3  C   UNL     1      61.873  10.653   2.682  1.00  0.00     0.031 A 
HETATM    4  C   UNL     1      62.125  10.807   4.029  1.00  0.00     0.051 A 
HETATM    5  C   UNL     1      62.836   8.604   3.200  1.00  0.00     0.073 A 
HETATM    6 CL   UNL     1      62.107   8.897   0.576  1.00  0.00    -0.084 Cl
ENDROOT
TORSDOF 0
ENDMDL
MODEL 4
REMARK VINA RESULT:      -2.6      1.894      2.188
REMARK  0 active torsions:
REMARK  status: ('A' for Active; 'I' for Inactive)
ROOT
HETATM    1  C   UNL     1      62.211   9.554   2.554  1.00  0.00     0.041 A 
HETATM    2  S   UNL     1      62.543  10.772   4.789  1.00  0.00    -0.112 SA
HETATM    3  C   UNL     1      62.941   8.658   3.383  1.00  0.00     0.031 A 
HETATM    4  C   UNL     1      63.189   9.194   4.630  1.00  0.00     0.051 A 
HETATM    5  C   UNL     1      61.930  10.741   3.192  1.00  0.00     0.073 A 
HETATM    6 CL   UNL     1      61.751   9.170   0.954  1.00  0.00    -0.084 Cl
ENDROOT
TORSDOF 0
ENDMDL
MODEL 5
REMARK VINA RESULT:      -2.6      2.388      2.879
REMARK  0 active torsions:
REMARK  status: ('A' for Active; 'I' for Inactive)
ROOT
HETATM    1  C   UNL     1      62.506   9.432   3.721  1.00  0.00     0.041 A 
HETATM    2  S   UNL     1      62.103   9.276   1.190  1.00  0.00    -0.112 SA
HETATM    3  C   UNL     1      62.024  10.709   3.322  1.00  0.00     0.031 A 
HETATM    4  C   UNL     1      61.763  10.763   1.968  1.00  0.00     0.051 A 
HETATM    5  C   UNL     1      62.599   8.557   2.662  1.00  0.00     0.073 A 
HETATM    6 CL   UNL     1      62.913   9.059   5.337  1.00  0.00    -0.084 Cl
ENDROOT
TORSDOF 0
ENDMDL
MODEL 6
REMARK VINA RESULT:      -2.4      3.009      3.674
REMARK  0 active torsions:
REMARK  status: ('A' for Active; 'I' for Inactive)
ROOT
HETATM    1  C   UNL     1      63.790   8.934   4.700  1.00  0.00     0.041 A 
HETATM    2  S   UNL     1      61.962   9.461   2.977  1.00  0.00    -0.112 SA
HETATM    3  C   UNL     1      63.180  10.143   5.134  1.00  0.00     0.031 A 
HETATM    4  C   UNL     1      62.168  10.544   4.288  1.00  0.00     0.051 A 
HETATM    5  C   UNL     1      63.227   8.455   3.540  1.00  0.00     0.073 A 
HETATM    6 CL   UNL     1      65.074   8.188   5.545  1.00  0.00    -0.084 Cl
ENDROOT
TORSDOF 0
ENDMDL
MODEL 7
REMARK VINA RESULT:      -2.4      2.909      3.524
REMARK  0 active torsions:
REMARK  status: ('A' for Active; 'I' for Inactive)
ROOT
HETATM    1  C   UNL     1      63.380   8.435   3.719  1.00  0.00     0.041 A 
HETATM    2  S   UNL     1      61.956  10.569   3.808  1.00  0.00    -0.112 SA
HETATM    3  C   UNL     1      63.678   9.052   4.965  1.00  0.00     0.031 A 
HETATM    4  C   UNL     1      62.971  10.223   5.143  1.00  0.00     0.051 A 
HETATM    5  C   UNL     1      62.460   9.153   2.989  1.00  0.00     0.073 A 
HETATM    6 CL   UNL     1      64.098   6.969   3.216  1.00  0.00    -0.084 Cl
ENDROOT
TORSDOF 0
ENDMDL
MODEL 8
REMARK VINA RESULT:      -2.3      6.871      7.185
REMARK  0 active torsions:
REMARK  status: ('A' for Active; 'I' for Inactive)
ROOT
HETATM    1  C   UNL     1      66.386   7.075   6.578  1.00  0.00     0.041 A 
HETATM    2  S   UNL     1      66.780   5.500   8.566  1.00  0.00    -0.112 SA
HETATM    3  C   UNL     1      67.668   6.494   6.370  1.00  0.00     0.031 A 
HETATM    4  C   UNL     1      68.007   5.616   7.377  1.00  0.00     0.051 A 
HETATM    5  C   UNL     1      65.793   6.624   7.735  1.00  0.00     0.073 A 
HETATM    6 CL   UNL     1      65.693   8.201   5.497  1.00  0.00    -0.084 Cl
ENDROOT
TORSDOF 0
ENDMDL
MODEL 9
REMARK VINA RESULT:      -2.3     13.505     13.931
REMARK  0 active torsions:
REMARK  status: ('A' for Active; 'I' for Inactive)
ROOT
HETATM    1  C   UNL     1      58.056   2.051  12.450  1.00  0.00     0.041 A 
HETATM    2  S   UNL     1      56.859   0.410  14.019  1.00  0.00    -0.112 SA
HETATM    3  C   UNL     1      58.975   1.772  13.499  1.00  0.00     0.031 A 
HETATM    4  C   UNL     1      58.452   0.891  14.422  1.00  0.00     0.051 A 
HETATM    5  C   UNL     1      56.866   1.379  12.608  1.00  0.00     0.073 A 
HETATM    6 CL   UNL     1      58.420   3.106  11.156  1.00  0.00    -0.084 Cl
ENDROOT
TORSDOF 0
ENDMDL
