MODEL 1
REMARK VINA RESULT:      -3.6      0.000      0.000
REMARK  1 active torsions:
REMARK  status: ('A' for Active; 'I' for Inactive)
REMARK    1  A    between atoms: C_3  and  C_9 
ROOT
HETATM    1  N   UNL     1      62.073  11.768   4.360  1.00  0.00    -0.197 NA
HETATM    2  C   UNL     1      62.072  10.712   3.875  1.00  0.00     0.065 C 
HETATM    3  C   UNL     1      62.026   9.384   3.255  1.00  0.00     0.188 C 
ENDROOT
BRANCH   3   4
HETATM    4  C   UNL     1      63.190   8.562   3.705  1.00  0.00     0.064 A 
HETATM    5  N   UNL     1      64.040   8.929   4.643  1.00  0.00    -0.356 N 
HETATM    6  C   UNL     1      64.990   7.941   4.844  1.00  0.00     0.012 A 
ATOM      7  HN  UNL     1      64.002   9.814   5.149  1.00  0.00     0.166 HD
HETATM    8  C   UNL     1      64.864   6.843   4.016  1.00  0.00     0.076 A 
HETATM    9  C   UNL     1      66.013   8.147   5.901  1.00  0.00     0.068 C 
HETATM   10  S   UNL     1      63.519   7.038   2.975  1.00  0.00    -0.086 SA
ENDBRANCH   3   4
TORSDOF 1
ENDMDL
MODEL 2
REMARK VINA RESULT:      -3.6      1.977      4.170
REMARK  1 active torsions:
REMARK  status: ('A' for Active; 'I' for Inactive)
REMARK    1  A    between atoms: C_3  and  C_9 
ROOT
HETATM    1  N   UNL     1      66.235   8.763   6.317  1.00  0.00    -0.197 NA
HETATM    2  C   UNL     1      65.382   8.232   5.734  1.00  0.00     0.065 C 
HETATM    3  C   UNL     1      64.331   7.522   4.998  1.00  0.00     0.188 C 
ENDROOT
BRANCH   3   4
HETATM    4  C   UNL     1      63.460   8.496   4.272  1.00  0.00     0.064 A 
HETATM    5  N   UNL     1      63.069   8.353   3.022  1.00  0.00    -0.356 N 
HETATM    6  C   UNL     1      62.254   9.411   2.650  1.00  0.00     0.012 A 
ATOM      7  HN  UNL     1      63.329   7.576   2.415  1.00  0.00     0.166 HD
HETATM    8  C   UNL     1      62.071  10.368   3.628  1.00  0.00     0.076 A 
HETATM    9  C   UNL     1      61.669   9.407   1.285  1.00  0.00     0.068 C 
HETATM   10  S   UNL     1      62.918   9.933   5.050  1.00  0.00    -0.086 SA
ENDBRANCH   3   4
TORSDOF 1
ENDMDL
MODEL 3
REMARK VINA RESULT:      -3.5      2.846      3.934
REMARK  1 active torsions:
REMARK  status: ('A' for Active; 'I' for Inactive)
REMARK    1  A    between atoms: C_3  and  C_9 
ROOT
HETATM    1  N   UNL     1      64.140   9.773   5.565  1.00  0.00    -0.197 NA
HETATM    2  C   UNL     1      64.677   8.801   5.223  1.00  0.00     0.065 C 
HETATM    3  C   UNL     1      65.323   7.570   4.758  1.00  0.00     0.188 C 
ENDROOT
BRANCH   3   4
HETATM    4  C   UNL     1      66.133   6.964   5.858  1.00  0.00     0.064 A 
HETATM    5  N   UNL     1      65.967   7.232   7.137  1.00  0.00    -0.356 N 
HETATM    6  C   UNL     1      66.856   6.494   7.902  1.00  0.00     0.012 A 
ATOM      7  HN  UNL     1      65.283   7.890   7.510  1.00  0.00     0.166 HD
HETATM    8  C   UNL     1      67.716   5.695   7.176  1.00  0.00     0.076 A 
HETATM    9  C   UNL     1      66.792   6.621   9.381  1.00  0.00     0.068 C 
HETATM   10  S   UNL     1      67.400   5.854   5.501  1.00  0.00    -0.086 SA
ENDBRANCH   3   4
TORSDOF 1
ENDMDL
MODEL 4
REMARK VINA RESULT:      -3.5      3.616      5.848
REMARK  1 active torsions:
REMARK  status: ('A' for Active; 'I' for Inactive)
REMARK    1  A    between atoms: C_3  and  C_9 
ROOT
HETATM    1  N   UNL     1      66.987   3.999   8.724  1.00  0.00    -0.197 NA
HETATM    2  C   UNL     1      66.901   5.155   8.644  1.00  0.00     0.065 C 
HETATM    3  C   UNL     1      66.783   6.616   8.589  1.00  0.00     0.188 C 
ENDROOT
BRANCH   3   4
HETATM    4  C   UNL     1      66.505   7.060   7.189  1.00  0.00     0.064 A 
HETATM    5  N   UNL     1      65.395   7.658   6.808  1.00  0.00    -0.356 N 
HETATM    6  C   UNL     1      65.453   7.962   5.457  1.00  0.00     0.012 A 
ATOM      7  HN  UNL     1      64.606   7.868   7.419  1.00  0.00     0.166 HD
HETATM    8  C   UNL     1      66.608   7.548   4.822  1.00  0.00     0.076 A 
HETATM    9  C   UNL     1      64.311   8.687   4.844  1.00  0.00     0.068 C 
HETATM   10  S   UNL     1      67.653   6.779   5.938  1.00  0.00    -0.086 SA
ENDBRANCH   3   4
TORSDOF 1
ENDMDL
MODEL 5
REMARK VINA RESULT:      -3.5      2.555      4.075
REMARK  1 active torsions:
REMARK  status: ('A' for Active; 'I' for Inactive)
REMARK    1  A    between atoms: C_3  and  C_9 
ROOT
HETATM    1  N   UNL     1      61.928  11.852   3.837  1.00  0.00    -0.197 NA
HETATM    2  C   UNL     1      62.131  10.726   4.037  1.00  0.00     0.065 C 
HETATM    3  C   UNL     1      62.429   9.316   4.308  1.00  0.00     0.188 C 
ENDROOT
BRANCH   3   4
HETATM    4  C   UNL     1      61.601   8.434   3.431  1.00  0.00     0.064 A 
HETATM    5  N   UNL     1      60.860   8.867   2.431  1.00  0.00    -0.356 N 
HETATM    6  C   UNL     1      60.234   7.803   1.801  1.00  0.00     0.012 A 
ATOM      7  HN  UNL     1      60.760   9.845   2.161  1.00  0.00     0.166 HD
HETATM    8  C   UNL     1      60.488   6.569   2.366  1.00  0.00     0.076 A 
HETATM    9  C   UNL     1      59.388   8.082   0.613  1.00  0.00     0.068 C 
HETATM   10  S   UNL     1      61.544   6.735   3.703  1.00  0.00    -0.086 SA
ENDBRANCH   3   4
TORSDOF 1
ENDMDL
MODEL 6
REMARK VINA RESULT:      -3.4      2.996      4.068
REMARK  1 active torsions:
REMARK  status: ('A' for Active; 'I' for Inactive)
REMARK    1  A    between atoms: C_3  and  C_9 
ROOT
HETATM    1  N   UNL     1      58.151   7.724   1.186  1.00  0.00    -0.197 NA
HETATM    2  C   UNL     1      59.260   7.971   0.941  1.00  0.00     0.065 C 
HETATM    3  C   UNL     1      60.656   8.256   0.594  1.00  0.00     0.188 C 
ENDROOT
BRANCH   3   4
HETATM    4  C   UNL     1      61.407   8.709   1.804  1.00  0.00     0.064 A 
HETATM    5  N   UNL     1      61.318   9.917   2.323  1.00  0.00    -0.356 N 
HETATM    6  C   UNL     1      62.119  10.016   3.450  1.00  0.00     0.012 A 
ATOM      7  HN  UNL     1      60.742  10.671   1.949  1.00  0.00     0.166 HD
HETATM    8  C   UNL     1      62.840   8.876   3.746  1.00  0.00     0.076 A 
HETATM    9  C   UNL     1      62.118  11.292   4.209  1.00  0.00     0.068 C 
HETATM   10  S   UNL     1      62.498   7.646   2.605  1.00  0.00    -0.086 SA
ENDBRANCH   3   4
TORSDOF 1
ENDMDL
MODEL 7
REMARK VINA RESULT:      -3.4      2.962      4.644
REMARK  1 active torsions:
REMARK  status: ('A' for Active; 'I' for Inactive)
REMARK    1  A    between atoms: C_3  and  C_9 
ROOT
HETATM    1  N   UNL     1      61.933  11.747   3.973  1.00  0.00    -0.197 NA
HETATM    2  C   UNL     1      62.027  10.600   3.813  1.00  0.00     0.065 C 
HETATM    3  C   UNL     1      62.189   9.154   3.631  1.00  0.00     0.188 C 
ENDROOT
BRANCH   3   4
HETATM    4  C   UNL     1      61.258   8.659   2.572  1.00  0.00     0.064 A 
HETATM    5  N   UNL     1      60.060   8.163   2.809  1.00  0.00    -0.356 N 
HETATM    6  C   UNL     1      59.440   7.816   1.620  1.00  0.00     0.012 A 
ATOM      7  HN  UNL     1      59.650   8.050   3.736  1.00  0.00     0.166 HD
HETATM    8  C   UNL     1      60.205   8.024   0.489  1.00  0.00     0.076 A 
HETATM    9  C   UNL     1      58.056   7.280   1.673  1.00  0.00     0.068 C 
HETATM   10  S   UNL     1      61.725   8.684   0.916  1.00  0.00    -0.086 SA
ENDBRANCH   3   4
TORSDOF 1
ENDMDL
MODEL 8
REMARK VINA RESULT:      -3.3      2.436      4.147
REMARK  1 active torsions:
REMARK  status: ('A' for Active; 'I' for Inactive)
REMARK    1  A    between atoms: C_3  and  C_9 
ROOT
HETATM    1  N   UNL     1      62.182   6.944   6.586  1.00  0.00    -0.197 NA
HETATM    2  C   UNL     1      62.841   7.675   5.968  1.00  0.00     0.065 C 
HETATM    3  C   UNL     1      63.696   8.607   5.227  1.00  0.00     0.188 C 
ENDROOT
BRANCH   3   4
HETATM    4  C   UNL     1      63.017   9.045   3.970  1.00  0.00     0.064 A 
HETATM    5  N   UNL     1      63.032   8.364   2.842  1.00  0.00    -0.356 N 
HETATM    6  C   UNL     1      62.293   9.023   1.872  1.00  0.00     0.012 A 
ATOM      7  HN  UNL     1      63.519   7.478   2.703  1.00  0.00     0.166 HD
HETATM    8  C   UNL     1      61.755  10.228   2.279  1.00  0.00     0.076 A 
HETATM    9  C   UNL     1      62.149   8.387   0.538  1.00  0.00     0.068 C 
HETATM   10  S   UNL     1      62.163  10.538   3.912  1.00  0.00    -0.086 SA
ENDBRANCH   3   4
TORSDOF 1
ENDMDL
MODEL 9
REMARK VINA RESULT:      -3.2      4.191      5.616
REMARK  1 active torsions:
REMARK  status: ('A' for Active; 'I' for Inactive)
REMARK    1  A    between atoms: C_3  and  C_9 
ROOT
HETATM    1  N   UNL     1      65.319   8.895   5.804  1.00  0.00    -0.197 NA
HETATM    2  C   UNL     1      66.238   8.187   5.728  1.00  0.00     0.065 C 
HETATM    3  C   UNL     1      67.401   7.306   5.586  1.00  0.00     0.188 C 
ENDROOT
BRANCH   3   4
HETATM    4  C   UNL     1      67.387   6.256   6.650  1.00  0.00     0.064 A 
HETATM    5  N   UNL     1      67.758   5.005   6.463  1.00  0.00    -0.356 N 
HETATM    6  C   UNL     1      67.651   4.291   7.646  1.00  0.00     0.012 A 
ATOM      7  HN  UNL     1      68.077   4.619   5.575  1.00  0.00     0.166 HD
HETATM    8  C   UNL     1      67.159   5.015   8.714  1.00  0.00     0.076 A 
HETATM    9  C   UNL     1      68.071   2.867   7.653  1.00  0.00     0.068 C 
HETATM   10  S   UNL     1      66.838   6.628   8.238  1.00  0.00    -0.086 SA
ENDBRANCH   3   4
TORSDOF 1
ENDMDL
