MODEL 1
REMARK VINA RESULT:      -5.4      0.000      0.000
REMARK  2 active torsions:
REMARK  status: ('A' for Active; 'I' for Inactive)
REMARK    1  A    between atoms: C_5  and  C_7 
REMARK    2  A    between atoms: C_7  and  C_8 
ROOT
HETATM    1  C   UNL     1      66.190   7.958   5.626  1.00  0.00     0.361 C 
HETATM    2  N   UNL     1      65.153   8.409   4.856  1.00  0.00    -0.330 N 
HETATM    3  O   UNL     1      65.722   7.123   6.597  1.00  0.00    -0.302 OA
HETATM    4  O   UNL     1      67.355   8.286   5.484  1.00  0.00    -0.239 OA
HETATM    5  C   UNL     1      63.908   8.092   5.488  1.00  0.00     0.115 C 
HETATM    6  C   UNL     1      64.317   6.930   6.377  1.00  0.00     0.206 C 
HETATM    7  H   UNL     1      65.248   8.878   3.996  1.00  0.00     0.165 HD
ENDROOT
BRANCH   5   8
HETATM    8  C   UNL     1      62.798   7.782   4.485  1.00  0.00     0.066 C 
BRANCH   8   9
HETATM    9  C   UNL     1      62.440   8.953   3.604  1.00  0.00    -0.056 A 
HETATM   10  C   UNL     1      62.356   8.802   2.213  1.00  0.00     0.007 A 
HETATM   11  C   UNL     1      62.045   9.895   1.401  1.00  0.00     0.001 A 
HETATM   12  C   UNL     1      61.819  11.147   1.971  1.00  0.00     0.000 A 
HETATM   13  C   UNL     1      61.893  11.305   3.351  1.00  0.00     0.001 A 
HETATM   14  C   UNL     1      62.198  10.214   4.164  1.00  0.00     0.007 A 
ENDBRANCH   8   9
ENDBRANCH   5   8
TORSDOF 2
ENDMDL
MODEL 2
REMARK VINA RESULT:      -4.9      1.169      2.161
REMARK  2 active torsions:
REMARK  status: ('A' for Active; 'I' for Inactive)
REMARK    1  A    between atoms: C_5  and  C_7 
REMARK    2  A    between atoms: C_7  and  C_8 
ROOT
HETATM    1  C   UNL     1      65.060   6.108   6.628  1.00  0.00     0.361 C 
HETATM    2  N   UNL     1      63.878   6.701   6.278  1.00  0.00    -0.330 N 
HETATM    3  O   UNL     1      66.108   6.823   6.124  1.00  0.00    -0.302 OA
HETATM    4  O   UNL     1      65.159   5.073   7.263  1.00  0.00    -0.239 OA
HETATM    5  C   UNL     1      64.113   7.696   5.276  1.00  0.00     0.115 C 
HETATM    6  C   UNL     1      65.581   8.008   5.511  1.00  0.00     0.206 C 
HETATM    7  H   UNL     1      62.999   6.478   6.660  1.00  0.00     0.165 HD
ENDROOT
BRANCH   5   8
HETATM    8  C   UNL     1      63.168   8.890   5.397  1.00  0.00     0.066 C 
BRANCH   8   9
HETATM    9  C   UNL     1      62.701   9.424   4.065  1.00  0.00    -0.056 A 
HETATM   10  C   UNL     1      62.200  10.729   3.954  1.00  0.00     0.007 A 
HETATM   11  C   UNL     1      61.750  11.210   2.722  1.00  0.00     0.001 A 
HETATM   12  C   UNL     1      61.792  10.391   1.594  1.00  0.00     0.000 A 
HETATM   13  C   UNL     1      62.295   9.098   1.693  1.00  0.00     0.001 A 
HETATM   14  C   UNL     1      62.750   8.617   2.920  1.00  0.00     0.007 A 
ENDBRANCH   8   9
ENDBRANCH   5   8
TORSDOF 2
ENDMDL
MODEL 3
REMARK VINA RESULT:      -4.9      2.786      5.553
REMARK  2 active torsions:
REMARK  status: ('A' for Active; 'I' for Inactive)
REMARK    1  A    between atoms: C_5  and  C_7 
REMARK    2  A    between atoms: C_7  and  C_8 
ROOT
HETATM    1  C   UNL     1      62.374  10.863   4.508  1.00  0.00     0.361 C 
HETATM    2  N   UNL     1      63.078  10.131   5.425  1.00  0.00    -0.330 N 
HETATM    3  O   UNL     1      62.232  10.151   3.353  1.00  0.00    -0.302 OA
HETATM    4  O   UNL     1      61.969  11.998   4.686  1.00  0.00    -0.239 OA
HETATM    5  C   UNL     1      63.671   8.996   4.786  1.00  0.00     0.115 C 
HETATM    6  C   UNL     1      62.774   8.841   3.571  1.00  0.00     0.206 C 
HETATM    7  H   UNL     1      63.161  10.351   6.381  1.00  0.00     0.165 HD
ENDROOT
BRANCH   5   8
HETATM    8  C   UNL     1      63.744   7.774   5.701  1.00  0.00     0.066 C 
BRANCH   8   9
HETATM    9  C   UNL     1      65.150   7.282   5.937  1.00  0.00    -0.056 A 
HETATM   10  C   UNL     1      65.409   6.290   6.892  1.00  0.00     0.007 A 
HETATM   11  C   UNL     1      66.717   5.854   7.122  1.00  0.00     0.001 A 
HETATM   12  C   UNL     1      67.774   6.408   6.402  1.00  0.00     0.000 A 
HETATM   13  C   UNL     1      67.526   7.388   5.446  1.00  0.00     0.001 A 
HETATM   14  C   UNL     1      66.221   7.821   5.211  1.00  0.00     0.007 A 
ENDBRANCH   8   9
ENDBRANCH   5   8
TORSDOF 2
ENDMDL
MODEL 4
REMARK VINA RESULT:      -4.8      1.809      2.260
REMARK  2 active torsions:
REMARK  status: ('A' for Active; 'I' for Inactive)
REMARK    1  A    between atoms: C_5  and  C_7 
REMARK    2  A    between atoms: C_7  and  C_8 
ROOT
HETATM    1  C   UNL     1      66.314   6.426   8.069  1.00  0.00     0.361 C 
HETATM    2  N   UNL     1      66.086   7.447   7.187  1.00  0.00    -0.330 N 
HETATM    3  O   UNL     1      65.618   5.316   7.689  1.00  0.00    -0.302 OA
HETATM    4  O   UNL     1      67.008   6.511   9.067  1.00  0.00    -0.239 OA
HETATM    5  C   UNL     1      64.988   7.112   6.333  1.00  0.00     0.115 C 
HETATM    6  C   UNL     1      64.993   5.596   6.427  1.00  0.00     0.206 C 
HETATM    7  H   UNL     1      66.601   8.284   7.146  1.00  0.00     0.165 HD
ENDROOT
BRANCH   5   8
HETATM    8  C   UNL     1      65.145   7.675   4.921  1.00  0.00     0.066 C 
BRANCH   8   9
HETATM    9  C   UNL     1      63.993   8.550   4.491  1.00  0.00    -0.056 A 
HETATM   10  C   UNL     1      63.242   8.233   3.351  1.00  0.00     0.007 A 
HETATM   11  C   UNL     1      62.190   9.059   2.946  1.00  0.00     0.001 A 
HETATM   12  C   UNL     1      61.885  10.209   3.673  1.00  0.00     0.000 A 
HETATM   13  C   UNL     1      62.621  10.527   4.810  1.00  0.00     0.001 A 
HETATM   14  C   UNL     1      63.667   9.701   5.220  1.00  0.00     0.007 A 
ENDBRANCH   8   9
ENDBRANCH   5   8
TORSDOF 2
ENDMDL
MODEL 5
REMARK VINA RESULT:      -4.7      1.396      1.794
REMARK  2 active torsions:
REMARK  status: ('A' for Active; 'I' for Inactive)
REMARK    1  A    between atoms: C_5  and  C_7 
REMARK    2  A    between atoms: C_7  and  C_8 
ROOT
HETATM    1  C   UNL     1      67.000   6.194   5.644  1.00  0.00     0.361 C 
HETATM    2  N   UNL     1      65.680   6.260   5.289  1.00  0.00    -0.330 N 
HETATM    3  O   UNL     1      67.449   7.432   6.000  1.00  0.00    -0.302 OA
HETATM    4  O   UNL     1      67.680   5.184   5.609  1.00  0.00    -0.239 OA
HETATM    5  C   UNL     1      65.288   7.628   5.133  1.00  0.00     0.115 C 
HETATM    6  C   UNL     1      66.331   8.331   5.985  1.00  0.00     0.206 C 
HETATM    7  H   UNL     1      65.089   5.483   5.161  1.00  0.00     0.165 HD
ENDROOT
BRANCH   5   8
HETATM    8  C   UNL     1      63.838   7.877   5.545  1.00  0.00     0.066 C 
BRANCH   8   9
HETATM    9  C   UNL     1      63.145   8.920   4.703  1.00  0.00    -0.056 A 
HETATM   10  C   UNL     1      62.744   8.629   3.392  1.00  0.00     0.007 A 
HETATM   11  C   UNL     1      62.121   9.605   2.610  1.00  0.00     0.001 A 
HETATM   12  C   UNL     1      61.899  10.879   3.130  1.00  0.00     0.000 A 
HETATM   13  C   UNL     1      62.287  11.175   4.433  1.00  0.00     0.001 A 
HETATM   14  C   UNL     1      62.903  10.201   5.217  1.00  0.00     0.007 A 
ENDBRANCH   8   9
ENDBRANCH   5   8
TORSDOF 2
ENDMDL
MODEL 6
REMARK VINA RESULT:      -4.4      3.679      4.996
REMARK  2 active torsions:
REMARK  status: ('A' for Active; 'I' for Inactive)
REMARK    1  A    between atoms: C_5  and  C_7 
REMARK    2  A    between atoms: C_7  and  C_8 
ROOT
HETATM    1  C   UNL     1      59.160   7.211   3.557  1.00  0.00     0.361 C 
HETATM    2  N   UNL     1      59.725   8.285   2.924  1.00  0.00    -0.330 N 
HETATM    3  O   UNL     1      59.835   6.071   3.233  1.00  0.00    -0.302 OA
HETATM    4  O   UNL     1      58.176   7.264   4.273  1.00  0.00    -0.239 OA
HETATM    5  C   UNL     1      60.642   7.830   1.923  1.00  0.00     0.115 C 
HETATM    6  C   UNL     1      60.971   6.439   2.437  1.00  0.00     0.206 C 
HETATM    7  H   UNL     1      59.532   9.228   3.128  1.00  0.00     0.165 HD
ENDROOT
BRANCH   5   8
HETATM    8  C   UNL     1      61.841   8.760   1.754  1.00  0.00     0.066 C 
BRANCH   8   9
HETATM    9  C   UNL     1      62.262   9.438   3.034  1.00  0.00    -0.056 A 
HETATM   10  C   UNL     1      61.845  10.745   3.321  1.00  0.00     0.007 A 
HETATM   11  C   UNL     1      62.256  11.376   4.498  1.00  0.00     0.001 A 
HETATM   12  C   UNL     1      63.089  10.707   5.395  1.00  0.00     0.000 A 
HETATM   13  C   UNL     1      63.501   9.407   5.122  1.00  0.00     0.001 A 
HETATM   14  C   UNL     1      63.088   8.774   3.950  1.00  0.00     0.007 A 
ENDBRANCH   8   9
ENDBRANCH   5   8
TORSDOF 2
ENDMDL
MODEL 7
REMARK VINA RESULT:      -4.4     13.340     14.550
REMARK  2 active torsions:
REMARK  status: ('A' for Active; 'I' for Inactive)
REMARK    1  A    between atoms: C_5  and  C_7 
REMARK    2  A    between atoms: C_7  and  C_8 
ROOT
HETATM    1  C   UNL     1      54.205   4.493  13.897  1.00  0.00     0.361 C 
HETATM    2  N   UNL     1      54.953   3.534  14.526  1.00  0.00    -0.330 N 
HETATM    3  O   UNL     1      54.161   4.246  12.556  1.00  0.00    -0.302 OA
HETATM    4  O   UNL     1      53.688   5.446  14.452  1.00  0.00    -0.239 OA
HETATM    5  C   UNL     1      55.668   2.765  13.554  1.00  0.00     0.115 C 
HETATM    6  C   UNL     1      54.821   2.995  12.315  1.00  0.00     0.206 C 
HETATM    7  H   UNL     1      54.991   3.394  15.499  1.00  0.00     0.165 HD
ENDROOT
BRANCH   5   8
HETATM    8  C   UNL     1      55.835   1.303  13.965  1.00  0.00     0.066 C 
BRANCH   8   9
HETATM    9  C   UNL     1      57.220   0.761  13.712  1.00  0.00    -0.056 A 
HETATM   10  C   UNL     1      58.299   1.630  13.497  1.00  0.00     0.007 A 
HETATM   11  C   UNL     1      59.576   1.122  13.243  1.00  0.00     0.001 A 
HETATM   12  C   UNL     1      59.783  -0.256  13.196  1.00  0.00     0.000 A 
HETATM   13  C   UNL     1      58.720  -1.126  13.416  1.00  0.00     0.001 A 
HETATM   14  C   UNL     1      57.446  -0.621  13.676  1.00  0.00     0.007 A 
ENDBRANCH   8   9
ENDBRANCH   5   8
TORSDOF 2
ENDMDL
MODEL 8
REMARK VINA RESULT:      -4.3      2.122      2.709
REMARK  2 active torsions:
REMARK  status: ('A' for Active; 'I' for Inactive)
REMARK    1  A    between atoms: C_5  and  C_7 
REMARK    2  A    between atoms: C_7  and  C_8 
ROOT
HETATM    1  C   UNL     1      65.081   8.506   5.340  1.00  0.00     0.361 C 
HETATM    2  N   UNL     1      64.015   9.289   4.987  1.00  0.00    -0.330 N 
HETATM    3  O   UNL     1      65.070   7.349   4.618  1.00  0.00    -0.302 OA
HETATM    4  O   UNL     1      65.896   8.788   6.201  1.00  0.00    -0.239 OA
HETATM    5  C   UNL     1      63.095   8.525   4.200  1.00  0.00     0.115 C 
HETATM    6  C   UNL     1      64.003   7.433   3.662  1.00  0.00     0.206 C 
HETATM    7  H   UNL     1      63.900  10.234   5.236  1.00  0.00     0.165 HD
ENDROOT
BRANCH   5   8
HETATM    8  C   UNL     1      62.390   9.366   3.136  1.00  0.00     0.066 C 
BRANCH   8   9
HETATM    9  C   UNL     1      61.231   8.657   2.480  1.00  0.00    -0.056 A 
HETATM   10  C   UNL     1      61.066   8.694   1.089  1.00  0.00     0.007 A 
HETATM   11  C   UNL     1      59.979   8.053   0.489  1.00  0.00     0.001 A 
HETATM   12  C   UNL     1      59.047   7.375   1.274  1.00  0.00     0.000 A 
HETATM   13  C   UNL     1      59.207   7.327   2.655  1.00  0.00     0.001 A 
HETATM   14  C   UNL     1      60.294   7.961   3.255  1.00  0.00     0.007 A 
ENDBRANCH   8   9
ENDBRANCH   5   8
TORSDOF 2
ENDMDL
MODEL 9
REMARK VINA RESULT:      -4.2      2.366      3.123
REMARK  2 active torsions:
REMARK  status: ('A' for Active; 'I' for Inactive)
REMARK    1  A    between atoms: C_5  and  C_7 
REMARK    2  A    between atoms: C_7  and  C_8 
ROOT
HETATM    1  C   UNL     1      63.553   4.535   4.153  1.00  0.00     0.361 C 
HETATM    2  N   UNL     1      62.688   5.579   4.335  1.00  0.00    -0.330 N 
HETATM    3  O   UNL     1      64.777   5.003   3.775  1.00  0.00    -0.302 OA
HETATM    4  O   UNL     1      63.259   3.358   4.274  1.00  0.00    -0.239 OA
HETATM    5  C   UNL     1      63.258   6.779   3.801  1.00  0.00     0.115 C 
HETATM    6  C   UNL     1      64.738   6.437   3.825  1.00  0.00     0.206 C 
HETATM    7  H   UNL     1      61.807   5.515   4.770  1.00  0.00     0.165 HD
ENDROOT
BRANCH   5   8
HETATM    8  C   UNL     1      62.866   8.024   4.595  1.00  0.00     0.066 C 
BRANCH   8   9
HETATM    9  C   UNL     1      62.489   9.197   3.726  1.00  0.00    -0.056 A 
HETATM   10  C   UNL     1      62.271  10.462   4.288  1.00  0.00     0.007 A 
HETATM   11  C   UNL     1      61.901  11.541   3.480  1.00  0.00     0.001 A 
HETATM   12  C   UNL     1      61.743  11.363   2.107  1.00  0.00     0.000 A 
HETATM   13  C   UNL     1      61.964  10.112   1.538  1.00  0.00     0.001 A 
HETATM   14  C   UNL     1      62.339   9.036   2.342  1.00  0.00     0.007 A 
ENDBRANCH   8   9
ENDBRANCH   5   8
TORSDOF 2
ENDMDL
