MODEL 1
REMARK VINA RESULT:      -3.6      0.000      0.000
REMARK  1 active torsions:
REMARK  status: ('A' for Active; 'I' for Inactive)
REMARK    1  A    between atoms: C_1  and  CA_3 
ROOT
ATOM      1  N   PRO A   1      63.767   9.876   5.637  1.00  0.00    -0.061 N 
ATOM      2  CA  PRO A   1      63.476   8.651   4.828  1.00  0.00     0.285 C 
ATOM      3  CD  PRO A   1      62.787  10.901   5.225  1.00  0.00     0.233 C 
ATOM      4  CB  PRO A   1      62.803   9.147   3.566  1.00  0.00     0.046 C 
ATOM      5  CG  PRO A   1      62.046  10.385   4.005  1.00  0.00     0.030 C 
ATOM      6  H1  PRO A   1      64.715  10.202   5.451  1.00  0.00     0.278 HD
ATOM      7  H2  PRO A   1      63.694   9.681   6.635  1.00  0.00     0.278 HD
ENDROOT
BRANCH   2   8
ATOM      8  C   PRO A   1      62.589   7.693   5.637  1.00  0.00     0.204 C 
ATOM      9  O   PRO A   1      61.756   6.939   5.161  1.00  0.00    -0.646 OA
ATOM     10  OXT PRO A   1      62.857   7.762   6.966  1.00  0.00    -0.646 OA
ENDBRANCH   2   8
TORSDOF 1
ENDMDL
MODEL 2
REMARK VINA RESULT:      -3.5      2.640      3.330
REMARK  1 active torsions:
REMARK  status: ('A' for Active; 'I' for Inactive)
REMARK    1  A    between atoms: C_1  and  CA_3 
ROOT
ATOM      1  N   PRO A   1      60.989   9.508   3.153  1.00  0.00    -0.061 N 
ATOM      2  CA  PRO A   1      62.417   9.837   3.462  1.00  0.00     0.285 C 
ATOM      3  CD  PRO A   1      60.722   8.180   3.740  1.00  0.00     0.233 C 
ATOM      4  CB  PRO A   1      63.112   8.504   3.638  1.00  0.00     0.046 C 
ATOM      5  CG  PRO A   1      62.042   7.593   4.206  1.00  0.00     0.030 C 
ATOM      6  H1  PRO A   1      60.846   9.481   2.144  1.00  0.00     0.278 HD
ATOM      7  H2  PRO A   1      60.361  10.211   3.539  1.00  0.00     0.278 HD
ENDROOT
BRANCH   2   8
ATOM      8  C   PRO A   1      62.487  10.715   4.721  1.00  0.00     0.204 C 
ATOM      9  O   PRO A   1      63.015  10.391   5.772  1.00  0.00    -0.646 OA
ATOM     10  OXT PRO A   1      61.906  11.925   4.521  1.00  0.00    -0.646 OA
ENDBRANCH   2   8
TORSDOF 1
ENDMDL
MODEL 3
REMARK VINA RESULT:      -3.5      4.490      5.489
REMARK  1 active torsions:
REMARK  status: ('A' for Active; 'I' for Inactive)
REMARK    1  A    between atoms: C_1  and  CA_3 
ROOT
ATOM      1  N   PRO A   1      65.498   6.882   7.688  1.00  0.00    -0.061 N 
ATOM      2  CA  PRO A   1      66.065   6.709   6.313  1.00  0.00     0.285 C 
ATOM      3  CD  PRO A   1      66.580   6.556   8.639  1.00  0.00     0.233 C 
ATOM      4  CB  PRO A   1      67.195   5.713   6.461  1.00  0.00     0.046 C 
ATOM      5  CG  PRO A   1      67.736   5.963   7.855  1.00  0.00     0.030 C 
ATOM      6  H1  PRO A   1      64.709   6.250   7.824  1.00  0.00     0.278 HD
ATOM      7  H2  PRO A   1      65.163   7.834   7.828  1.00  0.00     0.278 HD
ENDROOT
BRANCH   2   8
ATOM      8  C   PRO A   1      66.537   8.067   5.772  1.00  0.00     0.204 C 
ATOM      9  O   PRO A   1      67.496   8.233   5.036  1.00  0.00    -0.646 OA
ATOM     10  OXT PRO A   1      65.737   9.080   6.192  1.00  0.00    -0.646 OA
ENDBRANCH   2   8
TORSDOF 1
ENDMDL
MODEL 4
REMARK VINA RESULT:      -3.5      2.317      3.154
REMARK  1 active torsions:
REMARK  status: ('A' for Active; 'I' for Inactive)
REMARK    1  A    between atoms: C_1  and  CA_3 
ROOT
ATOM      1  N   PRO A   1      62.983   8.258   6.164  1.00  0.00    -0.061 N 
ATOM      2  CA  PRO A   1      62.549   9.127   5.024  1.00  0.00     0.285 C 
ATOM      3  CD  PRO A   1      64.295   7.693   5.793  1.00  0.00     0.233 C 
ATOM      4  CB  PRO A   1      63.252   8.576   3.802  1.00  0.00     0.046 C 
ATOM      5  CG  PRO A   1      64.560   8.027   4.336  1.00  0.00     0.030 C 
ATOM      6  H1  PRO A   1      62.307   7.509   6.310  1.00  0.00     0.278 HD
ATOM      7  H2  PRO A   1      63.047   8.795   7.028  1.00  0.00     0.278 HD
ENDROOT
BRANCH   2   8
ATOM      8  C   PRO A   1      62.921  10.589   5.315  1.00  0.00     0.204 C 
ATOM      9  O   PRO A   1      63.791  10.949   6.091  1.00  0.00    -0.646 OA
ATOM     10  OXT PRO A   1      62.176  11.452   4.579  1.00  0.00    -0.646 OA
ENDBRANCH   2   8
TORSDOF 1
ENDMDL
MODEL 5
REMARK VINA RESULT:      -3.4      2.376      2.969
REMARK  1 active torsions:
REMARK  status: ('A' for Active; 'I' for Inactive)
REMARK    1  A    between atoms: C_1  and  CA_3 
ROOT
ATOM      1  N   PRO A   1      60.958   8.980   3.357  1.00  0.00    -0.061 N 
ATOM      2  CA  PRO A   1      61.677  10.151   3.950  1.00  0.00     0.285 C 
ATOM      3  CD  PRO A   1      61.304   8.949   1.922  1.00  0.00     0.233 C 
ATOM      4  CB  PRO A   1      61.894  11.118   2.805  1.00  0.00     0.046 C 
ATOM      5  CG  PRO A   1      62.047  10.230   1.587  1.00  0.00     0.030 C 
ATOM      6  H1  PRO A   1      59.951   9.092   3.473  1.00  0.00     0.278 HD
ATOM      7  H2  PRO A   1      61.231   8.112   3.817  1.00  0.00     0.278 HD
ENDROOT
BRANCH   2   8
ATOM      8  C   PRO A   1      62.994   9.683   4.589  1.00  0.00     0.204 C 
ATOM      9  O   PRO A   1      63.680   8.759   4.182  1.00  0.00    -0.646 OA
ATOM     10  OXT PRO A   1      63.328  10.442   5.663  1.00  0.00    -0.646 OA
ENDBRANCH   2   8
TORSDOF 1
ENDMDL
MODEL 6
REMARK VINA RESULT:      -3.3      2.910      3.872
REMARK  1 active torsions:
REMARK  status: ('A' for Active; 'I' for Inactive)
REMARK    1  A    between atoms: C_1  and  CA_3 
ROOT
ATOM      1  N   PRO A   1      65.576   7.689   6.721  1.00  0.00    -0.061 N 
ATOM      2  CA  PRO A   1      64.814   7.571   5.438  1.00  0.00     0.285 C 
ATOM      3  CD  PRO A   1      66.991   7.901   6.359  1.00  0.00     0.233 C 
ATOM      4  CB  PRO A   1      65.817   7.086   4.413  1.00  0.00     0.046 C 
ATOM      5  CG  PRO A   1      67.134   7.684   4.863  1.00  0.00     0.030 C 
ATOM      6  H1  PRO A   1      65.477   6.833   7.266  1.00  0.00     0.278 HD
ATOM      7  H2  PRO A   1      65.223   8.461   7.286  1.00  0.00     0.278 HD
ENDROOT
BRANCH   2   8
ATOM      8  C   PRO A   1      64.200   8.931   5.071  1.00  0.00     0.204 C 
ATOM      9  O   PRO A   1      64.355   9.963   5.705  1.00  0.00    -0.646 OA
ATOM     10  OXT PRO A   1      63.472   8.862   3.928  1.00  0.00    -0.646 OA
ENDBRANCH   2   8
TORSDOF 1
ENDMDL
MODEL 7
REMARK VINA RESULT:      -3.3      4.810      5.900
REMARK  1 active torsions:
REMARK  status: ('A' for Active; 'I' for Inactive)
REMARK    1  A    between atoms: C_1  and  CA_3 
ROOT
ATOM      1  N   PRO A   1      68.061   6.486   7.158  1.00  0.00    -0.061 N 
ATOM      2  CA  PRO A   1      66.829   7.155   7.680  1.00  0.00     0.285 C 
ATOM      3  CD  PRO A   1      68.075   5.121   7.718  1.00  0.00     0.233 C 
ATOM      4  CB  PRO A   1      66.502   6.449   8.978  1.00  0.00     0.046 C 
ATOM      5  CG  PRO A   1      66.978   5.027   8.763  1.00  0.00     0.030 C 
ATOM      6  H1  PRO A   1      68.891   6.997   7.458  1.00  0.00     0.278 HD
ATOM      7  H2  PRO A   1      68.061   6.464   6.138  1.00  0.00     0.278 HD
ENDROOT
BRANCH   2   8
ATOM      8  C   PRO A   1      65.699   7.046   6.644  1.00  0.00     0.204 C 
ATOM      9  O   PRO A   1      65.861   6.849   5.450  1.00  0.00    -0.646 OA
ATOM     10  OXT PRO A   1      64.476   7.171   7.219  1.00  0.00    -0.646 OA
ENDBRANCH   2   8
TORSDOF 1
ENDMDL
MODEL 8
REMARK VINA RESULT:      -3.3      4.310      4.946
REMARK  1 active torsions:
REMARK  status: ('A' for Active; 'I' for Inactive)
REMARK    1  A    between atoms: C_1  and  CA_3 
ROOT
ATOM      1  N   PRO A   1      67.012   8.150   6.856  1.00  0.00    -0.061 N 
ATOM      2  CA  PRO A   1      66.755   6.799   7.448  1.00  0.00     0.285 C 
ATOM      3  CD  PRO A   1      67.493   7.927   5.479  1.00  0.00     0.233 C 
ATOM      4  CB  PRO A   1      67.656   5.846   6.692  1.00  0.00     0.046 C 
ATOM      5  CG  PRO A   1      67.751   6.442   5.302  1.00  0.00     0.030 C 
ATOM      6  H1  PRO A   1      67.720   8.642   7.400  1.00  0.00     0.278 HD
ATOM      7  H2  PRO A   1      66.165   8.718   6.861  1.00  0.00     0.278 HD
ENDROOT
BRANCH   2   8
ATOM      8  C   PRO A   1      65.266   6.446   7.309  1.00  0.00     0.204 C 
ATOM      9  O   PRO A   1      64.361   7.257   7.199  1.00  0.00    -0.646 OA
ATOM     10  OXT PRO A   1      65.068   5.104   7.299  1.00  0.00    -0.646 OA
ENDBRANCH   2   8
TORSDOF 1
ENDMDL
MODEL 9
REMARK VINA RESULT:      -3.2      3.633      4.545
REMARK  1 active torsions:
REMARK  status: ('A' for Active; 'I' for Inactive)
REMARK    1  A    between atoms: C_1  and  CA_3 
ROOT
ATOM      1  N   PRO A   1      65.364   8.427   5.918  1.00  0.00    -0.061 N 
ATOM      2  CA  PRO A   1      66.699   8.143   6.532  1.00  0.00     0.285 C 
ATOM      3  CD  PRO A   1      65.300   7.655   4.662  1.00  0.00     0.233 C 
ATOM      4  CB  PRO A   1      67.603   7.756   5.381  1.00  0.00     0.046 C 
ATOM      5  CG  PRO A   1      66.679   7.081   4.388  1.00  0.00     0.030 C 
ATOM      6  H1  PRO A   1      65.274   9.424   5.723  1.00  0.00     0.278 HD
ATOM      7  H2  PRO A   1      64.608   8.163   6.549  1.00  0.00     0.278 HD
ENDROOT
BRANCH   2   8
ATOM      8  C   PRO A   1      66.562   7.027   7.580  1.00  0.00     0.204 C 
ATOM      9  O   PRO A   1      67.484   6.355   8.012  1.00  0.00    -0.646 OA
ATOM     10  OXT PRO A   1      65.278   6.887   7.998  1.00  0.00    -0.646 OA
ENDBRANCH   2   8
TORSDOF 1
ENDMDL
