MODEL 1
REMARK VINA RESULT:      -6.5      0.000      0.000
REMARK  3 active torsions:
REMARK  status: ('A' for Active; 'I' for Inactive)
REMARK    1  A    between atoms: C_3  and  C_7 
REMARK    2  A    between atoms: C_4  and  C_9 
REMARK    3  A    between atoms: C_7  and  C_8 
REMARK       I    between atoms: C_8  and  N_13 
ROOT
HETATM    1  N   UNL     1      64.139   8.196   5.615  1.00  0.00    -0.352 N 
ATOM      2  HN  UNL     1      64.762   9.002   5.660  1.00  0.00     0.166 HD
HETATM    3  C   UNL     1      64.310   7.070   6.279  1.00  0.00     0.060 A 
HETATM    4  C   UNL     1      62.987   8.123   4.846  1.00  0.00     0.049 A 
HETATM    5  S   UNL     1      63.096   5.876   6.030  1.00  0.00    -0.086 SA
HETATM    6  C   UNL     1      62.282   6.939   4.964  1.00  0.00     0.081 A 
ENDROOT
BRANCH   4   7
HETATM    7  C   UNL     1      62.569   9.223   3.993  1.00  0.00    -0.009 A 
HETATM    8  C   UNL     1      62.373   9.033   2.616  1.00  0.00     0.017 A 
HETATM    9  C   UNL     1      61.984  10.097   1.803  1.00  0.00     0.043 A 
HETATM   10  C   UNL     1      61.788  11.350   2.366  1.00  0.00     0.116 A 
HETATM   11  C   UNL     1      61.973  11.562   3.727  1.00  0.00     0.043 A 
HETATM   12  F   UNL     1      61.413  12.370   1.584  1.00  0.00    -0.206 F 
HETATM   13  C   UNL     1      62.365  10.497   4.542  1.00  0.00     0.017 A 
ENDBRANCH   4   7
BRANCH   3  14
HETATM   14  C   UNL     1      65.473   6.792   7.170  1.00  0.00     0.167 C 
BRANCH  14  15
HETATM   15  C   UNL     1      66.648   7.663   6.792  1.00  0.00     0.221 C 
HETATM   16  O   UNL     1      66.601   8.896   6.817  1.00  0.00    -0.273 OA
HETATM   17  N   UNL     1      67.819   7.032   6.497  1.00  0.00    -0.370 N 
HETATM   18  H   UNL     1      67.857   6.048   6.477  1.00  0.00     0.159 HD
HETATM   19  H   UNL     1      68.628   7.558   6.306  1.00  0.00     0.159 HD
ENDBRANCH  14  15
ENDBRANCH   3  14
TORSDOF 3
ENDMDL
MODEL 2
REMARK VINA RESULT:      -5.5      1.790      2.242
REMARK  3 active torsions:
REMARK  status: ('A' for Active; 'I' for Inactive)
REMARK    1  A    between atoms: C_3  and  C_7 
REMARK    2  A    between atoms: C_4  and  C_9 
REMARK    3  A    between atoms: C_7  and  C_8 
REMARK       I    between atoms: C_8  and  N_13 
ROOT
HETATM    1  N   UNL     1      65.055   7.850   5.998  1.00  0.00    -0.352 N 
ATOM      2  HN  UNL     1      65.622   8.698   6.001  1.00  0.00     0.166 HD
HETATM    3  C   UNL     1      65.400   6.708   6.559  1.00  0.00     0.060 A 
HETATM    4  C   UNL     1      63.809   7.729   5.403  1.00  0.00     0.049 A 
HETATM    5  S   UNL     1      64.246   5.439   6.416  1.00  0.00    -0.086 SA
HETATM    6  C   UNL     1      63.211   6.490   5.549  1.00  0.00     0.081 A 
ENDROOT
BRANCH   4   7
HETATM    7  C   UNL     1      63.194   8.836   4.689  1.00  0.00    -0.009 A 
HETATM    8  C   UNL     1      63.035  10.089   5.301  1.00  0.00     0.017 A 
HETATM    9  C   UNL     1      62.433  11.142   4.613  1.00  0.00     0.043 A 
HETATM   10  C   UNL     1      61.991  10.944   3.314  1.00  0.00     0.116 A 
HETATM   11  C   UNL     1      62.139   9.713   2.685  1.00  0.00     0.043 A 
HETATM   12  F   UNL     1      61.414  11.957   2.654  1.00  0.00    -0.206 F 
HETATM   13  C   UNL     1      62.741   8.657   3.374  1.00  0.00     0.017 A 
ENDBRANCH   4   7
BRANCH   3  14
HETATM   14  C   UNL     1      66.700   6.473   7.252  1.00  0.00     0.167 C 
BRANCH  14  15
HETATM   15  C   UNL     1      66.470   5.837   8.602  1.00  0.00     0.221 C 
HETATM   16  O   UNL     1      66.521   4.618   8.784  1.00  0.00    -0.273 OA
HETATM   17  N   UNL     1      66.288   6.677   9.661  1.00  0.00    -0.370 N 
HETATM   18  H   UNL     1      66.248   7.650   9.515  1.00  0.00     0.159 HD
HETATM   19  H   UNL     1      66.196   6.311  10.569  1.00  0.00     0.159 HD
ENDBRANCH  14  15
ENDBRANCH   3  14
TORSDOF 3
ENDMDL
MODEL 3
REMARK VINA RESULT:      -5.4      2.894      3.712
REMARK  3 active torsions:
REMARK  status: ('A' for Active; 'I' for Inactive)
REMARK    1  A    between atoms: C_3  and  C_7 
REMARK    2  A    between atoms: C_4  and  C_9 
REMARK    3  A    between atoms: C_7  and  C_8 
REMARK       I    between atoms: C_8  and  N_13 
ROOT
HETATM    1  N   UNL     1      61.696   7.191   5.187  1.00  0.00    -0.352 N 
ATOM      2  HN  UNL     1      60.698   7.294   5.000  1.00  0.00     0.166 HD
HETATM    3  C   UNL     1      62.232   6.242   5.929  1.00  0.00     0.060 A 
HETATM    4  C   UNL     1      62.687   8.029   4.700  1.00  0.00     0.049 A 
HETATM    5  S   UNL     1      63.946   6.294   6.067  1.00  0.00    -0.086 SA
HETATM    6  C   UNL     1      63.976   7.679   5.062  1.00  0.00     0.081 A 
ENDROOT
BRANCH   4   7
HETATM    7  C   UNL     1      62.373   9.178   3.868  1.00  0.00    -0.009 A 
HETATM    8  C   UNL     1      62.209   9.041   2.480  1.00  0.00     0.017 A 
HETATM    9  C   UNL     1      61.919  10.152   1.688  1.00  0.00     0.043 A 
HETATM   10  C   UNL     1      61.793  11.399   2.282  1.00  0.00     0.116 A 
HETATM   11  C   UNL     1      61.948  11.560   3.654  1.00  0.00     0.043 A 
HETATM   12  F   UNL     1      61.514  12.464   1.520  1.00  0.00    -0.206 F 
HETATM   13  C   UNL     1      62.240  10.448   4.448  1.00  0.00     0.017 A 
ENDBRANCH   4   7
BRANCH   3  14
HETATM   14  C   UNL     1      61.447   5.194   6.643  1.00  0.00     0.167 C 
BRANCH  14  15
HETATM   15  C   UNL     1      60.021   5.649   6.847  1.00  0.00     0.221 C 
HETATM   16  O   UNL     1      59.208   5.735   5.924  1.00  0.00    -0.273 OA
HETATM   17  N   UNL     1      59.624   5.887   8.129  1.00  0.00    -0.370 N 
HETATM   18  H   UNL     1      60.273   5.818   8.867  1.00  0.00     0.159 HD
HETATM   19  H   UNL     1      58.688   6.126   8.319  1.00  0.00     0.159 HD
ENDBRANCH  14  15
ENDBRANCH   3  14
TORSDOF 3
ENDMDL
MODEL 4
REMARK VINA RESULT:      -5.3      3.707      6.072
REMARK  3 active torsions:
REMARK  status: ('A' for Active; 'I' for Inactive)
REMARK    1  A    between atoms: C_3  and  C_7 
REMARK    2  A    between atoms: C_4  and  C_9 
REMARK    3  A    between atoms: C_7  and  C_8 
REMARK       I    between atoms: C_8  and  N_13 
ROOT
HETATM    1  N   UNL     1      63.179   8.684   3.654  1.00  0.00    -0.352 N 
ATOM      2  HN  UNL     1      63.120   9.496   4.269  1.00  0.00     0.166 HD
HETATM    3  C   UNL     1      62.501   8.534   2.533  1.00  0.00     0.060 A 
HETATM    4  C   UNL     1      63.985   7.577   3.873  1.00  0.00     0.049 A 
HETATM    5  S   UNL     1      62.805   7.071   1.680  1.00  0.00    -0.086 SA
HETATM    6  C   UNL     1      63.924   6.608   2.889  1.00  0.00     0.081 A 
ENDROOT
BRANCH   4   7
HETATM    7  C   UNL     1      64.827   7.469   5.053  1.00  0.00    -0.009 A 
HETATM    8  C   UNL     1      66.069   8.120   5.116  1.00  0.00     0.017 A 
HETATM    9  C   UNL     1      66.875   8.001   6.247  1.00  0.00     0.043 A 
HETATM   10  C   UNL     1      66.440   7.232   7.316  1.00  0.00     0.116 A 
HETATM   11  C   UNL     1      65.213   6.580   7.280  1.00  0.00     0.043 A 
HETATM   12  F   UNL     1      67.215   7.120   8.403  1.00  0.00    -0.206 F 
HETATM   13  C   UNL     1      64.405   6.698   6.146  1.00  0.00     0.017 A 
ENDBRANCH   4   7
BRANCH   3  14
HETATM   14  C   UNL     1      61.507   9.519   2.017  1.00  0.00     0.167 C 
BRANCH  14  15
HETATM   15  C   UNL     1      61.700  10.861   2.682  1.00  0.00     0.221 C 
HETATM   16  O   UNL     1      61.672  11.011   3.906  1.00  0.00    -0.273 OA
HETATM   17  N   UNL     1      62.002  11.916   1.873  1.00  0.00    -0.370 N 
HETATM   18  H   UNL     1      62.025  11.796   0.896  1.00  0.00     0.159 HD
HETATM   19  H   UNL     1      62.197  12.797   2.265  1.00  0.00     0.159 HD
ENDBRANCH  14  15
ENDBRANCH   3  14
TORSDOF 3
ENDMDL
MODEL 5
REMARK VINA RESULT:      -5.1      2.523      2.979
REMARK  3 active torsions:
REMARK  status: ('A' for Active; 'I' for Inactive)
REMARK    1  A    between atoms: C_3  and  C_7 
REMARK    2  A    between atoms: C_4  and  C_9 
REMARK    3  A    between atoms: C_7  and  C_8 
REMARK       I    between atoms: C_8  and  N_13 
ROOT
HETATM    1  N   UNL     1      66.032   6.500   5.776  1.00  0.00    -0.352 N 
ATOM      2  HN  UNL     1      65.796   7.029   6.617  1.00  0.00     0.166 HD
HETATM    3  C   UNL     1      66.948   5.555   5.710  1.00  0.00     0.060 A 
HETATM    4  C   UNL     1      65.434   6.670   4.537  1.00  0.00     0.049 A 
HETATM    5  S   UNL     1      67.130   4.812   4.168  1.00  0.00    -0.086 SA
HETATM    6  C   UNL     1      65.894   5.820   3.547  1.00  0.00     0.081 A 
ENDROOT
BRANCH   4   7
HETATM    7  C   UNL     1      64.400   7.668   4.319  1.00  0.00    -0.009 A 
HETATM    8  C   UNL     1      63.520   7.569   3.230  1.00  0.00     0.017 A 
HETATM    9  C   UNL     1      62.538   8.537   3.022  1.00  0.00     0.043 A 
HETATM   10  C   UNL     1      62.435   9.603   3.903  1.00  0.00     0.116 A 
HETATM   11  C   UNL     1      63.292   9.722   4.991  1.00  0.00     0.043 A 
HETATM   12  F   UNL     1      61.490  10.532   3.703  1.00  0.00    -0.206 F 
HETATM   13  C   UNL     1      64.277   8.753   5.199  1.00  0.00     0.017 A 
ENDBRANCH   4   7
BRANCH   3  14
HETATM   14  C   UNL     1      67.813   5.145   6.854  1.00  0.00     0.167 C 
BRANCH  14  15
HETATM   15  C   UNL     1      67.192   5.570   8.164  1.00  0.00     0.221 C 
HETATM   16  O   UNL     1      66.163   5.059   8.612  1.00  0.00    -0.273 OA
HETATM   17  N   UNL     1      67.868   6.500   8.897  1.00  0.00    -0.370 N 
HETATM   18  H   UNL     1      68.690   6.907   8.538  1.00  0.00     0.159 HD
HETATM   19  H   UNL     1      67.535   6.763   9.785  1.00  0.00     0.159 HD
ENDBRANCH  14  15
ENDBRANCH   3  14
TORSDOF 3
ENDMDL
MODEL 6
REMARK VINA RESULT:      -5.0      4.734      5.674
REMARK  3 active torsions:
REMARK  status: ('A' for Active; 'I' for Inactive)
REMARK    1  A    between atoms: C_3  and  C_7 
REMARK    2  A    between atoms: C_4  and  C_9 
REMARK    3  A    between atoms: C_7  and  C_8 
REMARK       I    between atoms: C_8  and  N_13 
ROOT
HETATM    1  N   UNL     1      60.743   8.332   3.850  1.00  0.00    -0.352 N 
ATOM      2  HN  UNL     1      60.382   8.351   4.804  1.00  0.00     0.166 HD
HETATM    3  C   UNL     1      61.952   8.715   3.491  1.00  0.00     0.060 A 
HETATM    4  C   UNL     1      60.034   7.898   2.740  1.00  0.00     0.049 A 
HETATM    5  S   UNL     1      62.306   8.562   1.814  1.00  0.00    -0.086 SA
HETATM    6  C   UNL     1      60.737   7.934   1.549  1.00  0.00     0.081 A 
ENDROOT
BRANCH   4   7
HETATM    7  C   UNL     1      58.659   7.438   2.846  1.00  0.00    -0.009 A 
HETATM    8  C   UNL     1      57.904   7.151   1.697  1.00  0.00     0.017 A 
HETATM    9  C   UNL     1      56.582   6.722   1.808  1.00  0.00     0.043 A 
HETATM   10  C   UNL     1      56.015   6.579   3.065  1.00  0.00     0.116 A 
HETATM   11  C   UNL     1      56.742   6.853   4.218  1.00  0.00     0.043 A 
HETATM   12  F   UNL     1      54.745   6.165   3.170  1.00  0.00    -0.206 F 
HETATM   13  C   UNL     1      58.067   7.285   4.108  1.00  0.00     0.017 A 
ENDBRANCH   4   7
BRANCH   3  14
HETATM   14  C   UNL     1      62.965   9.278   4.430  1.00  0.00     0.167 C 
BRANCH  14  15
HETATM   15  C   UNL     1      62.616  10.703   4.791  1.00  0.00     0.221 C 
HETATM   16  O   UNL     1      61.774  11.361   4.175  1.00  0.00    -0.273 OA
HETATM   17  N   UNL     1      63.210  11.225   5.901  1.00  0.00    -0.370 N 
HETATM   18  H   UNL     1      63.883  10.699   6.393  1.00  0.00     0.159 HD
HETATM   19  H   UNL     1      62.968  12.126   6.212  1.00  0.00     0.159 HD
ENDBRANCH  14  15
ENDBRANCH   3  14
TORSDOF 3
ENDMDL
MODEL 7
REMARK VINA RESULT:      -5.0      5.148      6.639
REMARK  3 active torsions:
REMARK  status: ('A' for Active; 'I' for Inactive)
REMARK    1  A    between atoms: C_3  and  C_7 
REMARK    2  A    between atoms: C_4  and  C_9 
REMARK    3  A    between atoms: C_7  and  C_8 
REMARK       I    between atoms: C_8  and  N_13 
ROOT
HETATM    1  N   UNL     1      60.488   8.431   3.193  1.00  0.00    -0.352 N 
ATOM      2  HN  UNL     1      60.876   8.793   4.064  1.00  0.00     0.166 HD
HETATM    3  C   UNL     1      60.912   8.748   1.986  1.00  0.00     0.060 A 
HETATM    4  C   UNL     1      59.436   7.531   3.104  1.00  0.00     0.049 A 
HETATM    5  S   UNL     1      60.087   7.977   0.688  1.00  0.00    -0.086 SA
HETATM    6  C   UNL     1      59.097   7.157   1.816  1.00  0.00     0.081 A 
ENDROOT
BRANCH   4   7
HETATM    7  C   UNL     1      58.761   7.028   4.289  1.00  0.00    -0.009 A 
HETATM    8  C   UNL     1      57.460   7.446   4.610  1.00  0.00     0.017 A 
HETATM    9  C   UNL     1      56.824   6.967   5.755  1.00  0.00     0.043 A 
HETATM   10  C   UNL     1      57.488   6.071   6.579  1.00  0.00     0.116 A 
HETATM   11  C   UNL     1      58.776   5.639   6.281  1.00  0.00     0.043 A 
HETATM   12  F   UNL     1      56.876   5.611   7.678  1.00  0.00    -0.206 F 
HETATM   13  C   UNL     1      59.414   6.120   5.135  1.00  0.00     0.017 A 
ENDBRANCH   4   7
BRANCH   3  14
HETATM   14  C   UNL     1      62.006   9.726   1.713  1.00  0.00     0.167 C 
BRANCH  14  15
HETATM   15  C   UNL     1      61.797  10.989   2.515  1.00  0.00     0.221 C 
HETATM   16  O   UNL     1      61.709  10.992   3.746  1.00  0.00    -0.273 OA
HETATM   17  N   UNL     1      61.794  12.166   1.829  1.00  0.00    -0.370 N 
HETATM   18  H   UNL     1      61.865  12.163   0.846  1.00  0.00     0.159 HD
HETATM   19  H   UNL     1      61.724  13.019   2.314  1.00  0.00     0.159 HD
ENDBRANCH  14  15
ENDBRANCH   3  14
TORSDOF 3
ENDMDL
MODEL 8
REMARK VINA RESULT:      -4.9      4.107      6.458
REMARK  3 active torsions:
REMARK  status: ('A' for Active; 'I' for Inactive)
REMARK    1  A    between atoms: C_3  and  C_7 
REMARK    2  A    between atoms: C_4  and  C_9 
REMARK    3  A    between atoms: C_7  and  C_8 
REMARK       I    between atoms: C_8  and  N_13 
ROOT
HETATM    1  N   UNL     1      63.151   8.366   3.344  1.00  0.00    -0.352 N 
ATOM      2  HN  UNL     1      63.452   7.500   2.896  1.00  0.00     0.166 HD
HETATM    3  C   UNL     1      62.301   9.230   2.825  1.00  0.00     0.060 A 
HETATM    4  C   UNL     1      63.575   8.807   4.588  1.00  0.00     0.049 A 
HETATM    5  S   UNL     1      61.956  10.603   3.803  1.00  0.00    -0.086 SA
HETATM    6  C   UNL     1      63.011   9.999   5.007  1.00  0.00     0.081 A 
ENDROOT
BRANCH   4   7
HETATM    7  C   UNL     1      64.536   8.054   5.377  1.00  0.00    -0.009 A 
HETATM    8  C   UNL     1      64.116   7.026   6.236  1.00  0.00     0.017 A 
HETATM    9  C   UNL     1      65.044   6.317   6.998  1.00  0.00     0.043 A 
HETATM   10  C   UNL     1      66.391   6.634   6.901  1.00  0.00     0.116 A 
HETATM   11  C   UNL     1      66.832   7.646   6.056  1.00  0.00     0.043 A 
HETATM   12  F   UNL     1      67.281   5.951   7.633  1.00  0.00    -0.206 F 
HETATM   13  C   UNL     1      65.903   8.358   5.293  1.00  0.00     0.017 A 
ENDBRANCH   4   7
BRANCH   3  14
HETATM   14  C   UNL     1      61.681   9.088   1.476  1.00  0.00     0.167 C 
BRANCH  14  15
HETATM   15  C   UNL     1      60.490   8.161   1.537  1.00  0.00     0.221 C 
HETATM   16  O   UNL     1      60.469   7.146   2.238  1.00  0.00    -0.273 OA
HETATM   17  N   UNL     1      59.377   8.535   0.845  1.00  0.00    -0.370 N 
HETATM   18  H   UNL     1      59.394   9.346   0.286  1.00  0.00     0.159 HD
HETATM   19  H   UNL     1      58.556   7.996   0.905  1.00  0.00     0.159 HD
ENDBRANCH  14  15
ENDBRANCH   3  14
TORSDOF 3
ENDMDL
MODEL 9
REMARK VINA RESULT:      -4.9      5.008      6.175
REMARK  3 active torsions:
REMARK  status: ('A' for Active; 'I' for Inactive)
REMARK    1  A    between atoms: C_3  and  C_7 
REMARK    2  A    between atoms: C_4  and  C_9 
REMARK    3  A    between atoms: C_7  and  C_8 
REMARK       I    between atoms: C_8  and  N_13 
ROOT
HETATM    1  N   UNL     1      60.205   8.412   3.161  1.00  0.00    -0.352 N 
ATOM      2  HN  UNL     1      59.739   9.046   2.512  1.00  0.00     0.166 HD
HETATM    3  C   UNL     1      61.473   8.490   3.516  1.00  0.00     0.060 A 
HETATM    4  C   UNL     1      59.600   7.341   3.800  1.00  0.00     0.049 A 
HETATM    5  S   UNL     1      61.998   7.299   4.641  1.00  0.00    -0.086 SA
HETATM    6  C   UNL     1      60.421   6.635   4.660  1.00  0.00     0.081 A 
ENDROOT
BRANCH   4   7
HETATM    7  C   UNL     1      58.203   7.009   3.573  1.00  0.00    -0.009 A 
HETATM    8  C   UNL     1      57.655   7.039   2.280  1.00  0.00     0.017 A 
HETATM    9  C   UNL     1      56.311   6.730   2.073  1.00  0.00     0.043 A 
HETATM   10  C   UNL     1      55.515   6.390   3.157  1.00  0.00     0.116 A 
HETATM   11  C   UNL     1      56.034   6.350   4.446  1.00  0.00     0.043 A 
HETATM   12  F   UNL     1      54.224   6.092   2.956  1.00  0.00    -0.206 F 
HETATM   13  C   UNL     1      57.380   6.661   4.654  1.00  0.00     0.017 A 
ENDBRANCH   4   7
BRANCH   3  14
HETATM   14  C   UNL     1      62.431   9.502   2.983  1.00  0.00     0.167 C 
BRANCH  14  15
HETATM   15  C   UNL     1      61.902  10.899   3.208  1.00  0.00     0.221 C 
HETATM   16  O   UNL     1      61.869  11.430   4.321  1.00  0.00    -0.273 OA
HETATM   17  N   UNL     1      61.532  11.607   2.104  1.00  0.00    -0.370 N 
HETATM   18  H   UNL     1      61.558  11.183   1.215  1.00  0.00     0.159 HD
HETATM   19  H   UNL     1      61.240  12.542   2.194  1.00  0.00     0.159 HD
ENDBRANCH  14  15
ENDBRANCH   3  14
TORSDOF 3
ENDMDL
