MODEL 1
REMARK VINA RESULT:      -3.8      0.000      0.000
REMARK  1 active torsions:
REMARK  status: ('A' for Active; 'I' for Inactive)
REMARK    1  A    between atoms: C_1  and  C_4 
ROOT
HETATM    1  C   UNL     1      62.482  10.015   3.843  1.00  0.00     0.087 A 
HETATM    2  N   UNL     1      62.568   8.986   2.907  1.00  0.00    -0.343 N 
ATOM      3  HN  UNL     1      62.959   8.056   3.054  1.00  0.00     0.167 HD
HETATM    4  C   UNL     1      61.887  11.113   3.252  1.00  0.00     0.122 A 
HETATM    5  C   UNL     1      62.043   9.455   1.794  1.00  0.00     0.077 A 
HETATM    6  N   UNL     1      61.617  10.746   1.964  1.00  0.00    -0.354 N 
HETATM    7  C   UNL     1      61.899   8.746   0.499  1.00  0.00     0.089 C 
HETATM    8  H   UNL     1      61.191  11.311   1.279  1.00  0.00     0.166 HD
ENDROOT
BRANCH   1   9
HETATM    9  C   UNL     1      62.975   9.842   5.202  1.00  0.00     0.122 C 
HETATM   10  S   UNL     1      63.136   8.345   5.899  1.00  0.00    -0.059 SA
HETATM   11  N   UNL     1      63.296  10.989   5.867  1.00  0.00    -0.388 N 
HETATM   12  H   UNL     1      63.187  11.862   5.425  1.00  0.00     0.157 HD
HETATM   13  H   UNL     1      63.635  10.944   6.790  1.00  0.00     0.157 HD
ENDBRANCH   1   9
TORSDOF 1
ENDMDL
MODEL 2
REMARK VINA RESULT:      -3.8      1.859      2.364
REMARK  1 active torsions:
REMARK  status: ('A' for Active; 'I' for Inactive)
REMARK    1  A    between atoms: C_1  and  C_4 
ROOT
HETATM    1  C   UNL     1      62.863   9.520   4.740  1.00  0.00     0.087 A 
HETATM    2  N   UNL     1      62.434   9.726   3.431  1.00  0.00    -0.343 N 
ATOM      3  HN  UNL     1      62.371   9.028   2.690  1.00  0.00     0.167 HD
HETATM    4  C   UNL     1      62.800  10.716   5.429  1.00  0.00     0.122 A 
HETATM    5  C   UNL     1      62.124  11.003   3.341  1.00  0.00     0.077 A 
HETATM    6  N   UNL     1      62.334  11.639   4.536  1.00  0.00    -0.354 N 
HETATM    7  C   UNL     1      61.617  11.723   2.148  1.00  0.00     0.089 C 
HETATM    8  H   UNL     1      62.176  12.593   4.720  1.00  0.00     0.166 HD
ENDROOT
BRANCH   1   9
HETATM    9  C   UNL     1      63.289   8.204   5.197  1.00  0.00     0.122 C 
HETATM   10  S   UNL     1      64.133   7.162   4.221  1.00  0.00    -0.059 SA
HETATM   11  N   UNL     1      62.949   7.882   6.478  1.00  0.00    -0.388 N 
HETATM   12  H   UNL     1      62.446   8.523   7.031  1.00  0.00     0.157 HD
HETATM   13  H   UNL     1      63.205   7.007   6.850  1.00  0.00     0.157 HD
ENDBRANCH   1   9
TORSDOF 1
ENDMDL
MODEL 3
REMARK VINA RESULT:      -3.7      2.114      3.708
REMARK  1 active torsions:
REMARK  status: ('A' for Active; 'I' for Inactive)
REMARK    1  A    between atoms: C_1  and  C_4 
ROOT
HETATM    1  C   UNL     1      62.361   9.808   3.737  1.00  0.00     0.087 A 
HETATM    2  N   UNL     1      62.509   8.467   4.086  1.00  0.00    -0.343 N 
ATOM      3  HN  UNL     1      62.355   7.658   3.484  1.00  0.00     0.167 HD
HETATM    4  C   UNL     1      62.665  10.594   4.831  1.00  0.00     0.122 A 
HETATM    5  C   UNL     1      62.889   8.453   5.346  1.00  0.00     0.077 A 
HETATM    6  N   UNL     1      62.996   9.728   5.835  1.00  0.00    -0.354 N 
HETATM    7  C   UNL     1      63.179   7.265   6.185  1.00  0.00     0.089 C 
HETATM    8  H   UNL     1      63.263   9.978   6.750  1.00  0.00     0.166 HD
ENDROOT
BRANCH   1   9
HETATM    9  C   UNL     1      61.945  10.199   2.397  1.00  0.00     0.122 C 
HETATM   10  S   UNL     1      61.946   9.132   1.126  1.00  0.00    -0.059 SA
HETATM   11  N   UNL     1      61.554  11.498   2.252  1.00  0.00    -0.388 N 
HETATM   12  H   UNL     1      61.566  12.106   3.027  1.00  0.00     0.157 HD
HETATM   13  H   UNL     1      61.261  11.828   1.372  1.00  0.00     0.157 HD
ENDBRANCH   1   9
TORSDOF 1
ENDMDL
MODEL 4
REMARK VINA RESULT:      -3.7      4.410      6.228
REMARK  1 active torsions:
REMARK  status: ('A' for Active; 'I' for Inactive)
REMARK    1  A    between atoms: C_1  and  C_4 
ROOT
HETATM    1  C   UNL     1      65.750   7.796   5.946  1.00  0.00     0.087 A 
HETATM    2  N   UNL     1      65.552   7.281   7.226  1.00  0.00    -0.343 N 
ATOM      3  HN  UNL     1      64.661   7.166   7.708  1.00  0.00     0.167 HD
HETATM    4  C   UNL     1      67.101   7.785   5.660  1.00  0.00     0.122 A 
HETATM    5  C   UNL     1      66.746   6.973   7.688  1.00  0.00     0.077 A 
HETATM    6  N   UNL     1      67.715   7.265   6.764  1.00  0.00    -0.354 N 
HETATM    7  C   UNL     1      67.075   6.392   9.012  1.00  0.00     0.089 C 
HETATM    8  H   UNL     1      68.683   7.125   6.876  1.00  0.00     0.166 HD
ENDROOT
BRANCH   1   9
HETATM    9  C   UNL     1      64.629   8.244   5.131  1.00  0.00     0.122 C 
HETATM   10  S   UNL     1      64.042   7.345   3.866  1.00  0.00    -0.059 SA
HETATM   11  N   UNL     1      64.091   9.450   5.473  1.00  0.00    -0.388 N 
HETATM   12  H   UNL     1      64.464   9.959   6.229  1.00  0.00     0.157 HD
HETATM   13  H   UNL     1      63.331   9.813   4.963  1.00  0.00     0.157 HD
ENDBRANCH   1   9
TORSDOF 1
ENDMDL
MODEL 5
REMARK VINA RESULT:      -3.6      3.152      4.277
REMARK  1 active torsions:
REMARK  status: ('A' for Active; 'I' for Inactive)
REMARK    1  A    between atoms: C_1  and  C_4 
ROOT
HETATM    1  C   UNL     1      63.496   8.990   5.415  1.00  0.00     0.087 A 
HETATM    2  N   UNL     1      64.843   8.775   5.698  1.00  0.00    -0.343 N 
ATOM      3  HN  UNL     1      65.578   9.481   5.744  1.00  0.00     0.167 HD
HETATM    4  C   UNL     1      62.830   7.780   5.450  1.00  0.00     0.122 A 
HETATM    5  C   UNL     1      64.977   7.480   5.896  1.00  0.00     0.077 A 
HETATM    6  N   UNL     1      63.774   6.841   5.754  1.00  0.00    -0.354 N 
HETATM    7  C   UNL     1      66.222   6.746   6.227  1.00  0.00     0.089 C 
HETATM    8  H   UNL     1      63.617   5.873   5.853  1.00  0.00     0.166 HD
ENDROOT
BRANCH   1   9
HETATM    9  C   UNL     1      62.985  10.326   5.140  1.00  0.00     0.122 C 
HETATM   10  S   UNL     1      61.994  10.644   3.847  1.00  0.00    -0.059 SA
HETATM   11  N   UNL     1      63.373  11.300   6.012  1.00  0.00    -0.388 N 
HETATM   12  H   UNL     1      63.962  11.079   6.769  1.00  0.00     0.157 HD
HETATM   13  H   UNL     1      63.064  12.227   5.884  1.00  0.00     0.157 HD
ENDBRANCH   1   9
TORSDOF 1
ENDMDL
MODEL 6
REMARK VINA RESULT:      -3.3      6.256      7.740
REMARK  1 active torsions:
REMARK  status: ('A' for Active; 'I' for Inactive)
REMARK    1  A    between atoms: C_1  and  C_4 
ROOT
HETATM    1  C   UNL     1      66.744   6.522   7.221  1.00  0.00     0.087 A 
HETATM    2  N   UNL     1      67.477   5.357   7.003  1.00  0.00    -0.343 N 
ATOM      3  HN  UNL     1      68.043   5.135   6.185  1.00  0.00     0.167 HD
HETATM    4  C   UNL     1      66.117   6.437   8.449  1.00  0.00     0.122 A 
HETATM    5  C   UNL     1      67.293   4.602   8.066  1.00  0.00     0.077 A 
HETATM    6  N   UNL     1      66.471   5.225   8.968  1.00  0.00    -0.354 N 
HETATM    7  C   UNL     1      67.860   3.256   8.321  1.00  0.00     0.089 C 
HETATM    8  H   UNL     1      66.185   4.862   9.838  1.00  0.00     0.166 HD
ENDROOT
BRANCH   1   9
HETATM    9  C   UNL     1      66.719   7.594   6.235  1.00  0.00     0.122 C 
HETATM   10  S   UNL     1      67.925   7.789   5.113  1.00  0.00    -0.059 SA
HETATM   11  N   UNL     1      65.641   8.428   6.292  1.00  0.00    -0.388 N 
HETATM   12  H   UNL     1      64.943   8.285   6.972  1.00  0.00     0.157 HD
HETATM   13  H   UNL     1      65.562   9.175   5.655  1.00  0.00     0.157 HD
ENDBRANCH   1   9
TORSDOF 1
ENDMDL
MODEL 7
REMARK VINA RESULT:      -3.2      5.142      6.212
REMARK  1 active torsions:
REMARK  status: ('A' for Active; 'I' for Inactive)
REMARK    1  A    between atoms: C_1  and  C_4 
ROOT
HETATM    1  C   UNL     1      66.286   6.279   6.800  1.00  0.00     0.087 A 
HETATM    2  N   UNL     1      65.310   6.479   5.825  1.00  0.00    -0.343 N 
ATOM      3  HN  UNL     1      64.786   5.759   5.329  1.00  0.00     0.167 HD
HETATM    4  C   UNL     1      66.754   7.507   7.226  1.00  0.00     0.122 A 
HETATM    5  C   UNL     1      65.200   7.782   5.674  1.00  0.00     0.077 A 
HETATM    6  N   UNL     1      66.063   8.442   6.509  1.00  0.00    -0.354 N 
HETATM    7  C   UNL     1      64.295   8.507   4.750  1.00  0.00     0.089 C 
HETATM    8  H   UNL     1      66.167   9.419   6.581  1.00  0.00     0.166 HD
ENDROOT
BRANCH   1   9
HETATM    9  C   UNL     1      66.668   4.939   7.223  1.00  0.00     0.122 C 
HETATM   10  S   UNL     1      67.642   3.966   6.297  1.00  0.00    -0.059 SA
HETATM   11  N   UNL     1      66.175   4.533   8.428  1.00  0.00    -0.388 N 
HETATM   12  H   UNL     1      65.599   5.135   8.953  1.00  0.00     0.157 HD
HETATM   13  H   UNL     1      66.394   3.638   8.773  1.00  0.00     0.157 HD
ENDBRANCH   1   9
TORSDOF 1
ENDMDL
MODEL 8
REMARK VINA RESULT:      -3.2      2.020      2.915
REMARK  1 active torsions:
REMARK  status: ('A' for Active; 'I' for Inactive)
REMARK    1  A    between atoms: C_1  and  C_4 
ROOT
HETATM    1  C   UNL     1      61.545   8.385   3.168  1.00  0.00     0.087 A 
HETATM    2  N   UNL     1      61.367   9.750   3.384  1.00  0.00    -0.343 N 
ATOM      3  HN  UNL     1      61.000  10.193   4.226  1.00  0.00     0.167 HD
HETATM    4  C   UNL     1      62.066   8.193   1.904  1.00  0.00     0.122 A 
HETATM    5  C   UNL     1      61.768  10.353   2.284  1.00  0.00     0.077 A 
HETATM    6  N   UNL     1      62.201   9.439   1.360  1.00  0.00    -0.354 N 
HETATM    7  C   UNL     1      61.778  11.810   2.011  1.00  0.00     0.089 C 
HETATM    8  H   UNL     1      62.548   9.644   0.461  1.00  0.00     0.166 HD
ENDROOT
BRANCH   1   9
HETATM    9  C   UNL     1      61.200   7.407   4.191  1.00  0.00     0.122 C 
HETATM   10  S   UNL     1      62.219   7.050   5.451  1.00  0.00    -0.059 SA
HETATM   11  N   UNL     1      59.986   6.802   4.048  1.00  0.00    -0.388 N 
HETATM   12  H   UNL     1      59.405   7.036   3.288  1.00  0.00     0.157 HD
HETATM   13  H   UNL     1      59.690   6.130   4.704  1.00  0.00     0.157 HD
ENDBRANCH   1   9
TORSDOF 1
ENDMDL
MODEL 9
REMARK VINA RESULT:      -3.1      2.546      4.247
REMARK  1 active torsions:
REMARK  status: ('A' for Active; 'I' for Inactive)
REMARK    1  A    between atoms: C_1  and  C_4 
ROOT
HETATM    1  C   UNL     1      63.177   8.621   3.725  1.00  0.00     0.087 A 
HETATM    2  N   UNL     1      64.330   7.922   4.074  1.00  0.00    -0.343 N 
ATOM      3  HN  UNL     1      64.742   7.134   3.576  1.00  0.00     0.167 HD
HETATM    4  C   UNL     1      62.955   9.618   4.654  1.00  0.00     0.122 A 
HETATM    5  C   UNL     1      64.782   8.483   5.176  1.00  0.00     0.077 A 
HETATM    6  N   UNL     1      63.972   9.519   5.561  1.00  0.00    -0.354 N 
HETATM    7  C   UNL     1      65.989   8.102   5.949  1.00  0.00     0.089 C 
HETATM    8  H   UNL     1      64.101  10.092   6.352  1.00  0.00     0.166 HD
ENDROOT
BRANCH   1   9
HETATM    9  C   UNL     1      62.407   8.264   2.541  1.00  0.00     0.122 C 
HETATM   10  S   UNL     1      61.950   9.392   1.412  1.00  0.00    -0.059 SA
HETATM   11  N   UNL     1      62.084   6.945   2.418  1.00  0.00    -0.388 N 
HETATM   12  H   UNL     1      62.370   6.301   3.106  1.00  0.00     0.157 HD
HETATM   13  H   UNL     1      61.564   6.636   1.641  1.00  0.00     0.157 HD
ENDBRANCH   1   9
TORSDOF 1
ENDMDL
