MODEL 1
REMARK VINA RESULT:      -5.1      0.000      0.000
REMARK  2 active torsions:
REMARK  status: ('A' for Active; 'I' for Inactive)
REMARK    1  A    between atoms: C_4  and  C_7 
REMARK    2  A    between atoms: C_5  and  N_14 
ROOT
HETATM    1  C   UNL     1      63.076   8.225   3.286  1.00  0.00     0.041 A 
HETATM    2  C   UNL     1      63.623   8.179   4.566  1.00  0.00     0.089 A 
HETATM    3  C   UNL     1      64.013   6.059   3.389  1.00  0.00     0.114 A 
HETATM    4  C   UNL     1      62.426   9.439   2.925  1.00  0.00     0.065 A 
HETATM    5  C   UNL     1      63.314   6.970   2.612  1.00  0.00     0.068 A 
HETATM    6  S   UNL     1      64.383   6.698   4.925  1.00  0.00    -0.058 SA
HETATM    7  N   UNL     1      63.607   9.149   5.500  1.00  0.00    -0.354 N 
ATOM      8  HN  UNL     1      64.035   9.029   6.419  1.00  0.00     0.166 HD
HETATM    9  C   UNL     1      64.397   4.739   2.995  1.00  0.00     0.109 C 
HETATM   10  N   UNL     1      64.688   3.673   2.626  1.00  0.00    -0.191 NA
HETATM   11  C   UNL     1      62.400  10.468   3.894  1.00  0.00     0.041 A 
HETATM   12  C   UNL     1      62.989  10.285   5.139  1.00  0.00     0.007 A 
HETATM   13  C   UNL     1      62.963  11.384   6.166  1.00  0.00     0.068 C 
ENDROOT
BRANCH   5  14
HETATM   14  N   UNL     1      62.907   6.689   1.354  1.00  0.00    -0.397 N 
HETATM   15  H   UNL     1      61.948   6.582   1.159  1.00  0.00     0.156 HD
HETATM   16  H   UNL     1      63.570   6.589   0.633  1.00  0.00     0.156 HD
ENDBRANCH   5  14
BRANCH   4  17
HETATM   17  C   UNL     1      61.767   9.704   1.595  1.00  0.00     0.418 C 
HETATM   18  F   UNL     1      60.676   8.946   1.312  1.00  0.00    -0.166 F 
HETATM   19  F   UNL     1      61.333  10.989   1.486  1.00  0.00    -0.166 F 
HETATM   20  F   UNL     1      62.613   9.497   0.551  1.00  0.00    -0.166 F 
ENDBRANCH   4  17
TORSDOF 2
ENDMDL
MODEL 2
REMARK VINA RESULT:      -5.1      2.648      3.900
REMARK  2 active torsions:
REMARK  status: ('A' for Active; 'I' for Inactive)
REMARK    1  A    between atoms: C_4  and  C_7 
REMARK    2  A    between atoms: C_5  and  N_14 
ROOT
HETATM    1  C   UNL     1      63.995   7.766   4.143  1.00  0.00     0.041 A 
HETATM    2  C   UNL     1      63.997   6.907   3.047  1.00  0.00     0.089 A 
HETATM    3  C   UNL     1      65.555   6.105   4.768  1.00  0.00     0.114 A 
HETATM    4  C   UNL     1      63.129   8.893   4.057  1.00  0.00     0.065 A 
HETATM    5  C   UNL     1      64.917   7.279   5.142  1.00  0.00     0.068 A 
HETATM    6  S   UNL     1      65.055   5.585   3.224  1.00  0.00    -0.058 SA
HETATM    7  N   UNL     1      63.274   7.020   1.916  1.00  0.00    -0.354 N 
ATOM      8  HN  UNL     1      63.338   6.341   1.157  1.00  0.00     0.166 HD
HETATM    9  C   UNL     1      66.514   5.385   5.545  1.00  0.00     0.109 C 
HETATM   10  N   UNL     1      67.291   4.836   6.217  1.00  0.00    -0.191 NA
HETATM   11  C   UNL     1      62.363   9.026   2.876  1.00  0.00     0.041 A 
HETATM   12  C   UNL     1      62.464   8.089   1.855  1.00  0.00     0.007 A 
HETATM   13  C   UNL     1      61.645   8.233   0.602  1.00  0.00     0.068 C 
ENDROOT
BRANCH   5  14
HETATM   14  N   UNL     1      65.154   7.885   6.326  1.00  0.00    -0.397 N 
HETATM   15  H   UNL     1      65.380   7.348   7.119  1.00  0.00     0.156 HD
HETATM   16  H   UNL     1      65.099   8.866   6.396  1.00  0.00     0.156 HD
ENDBRANCH   5  14
BRANCH   4  17
HETATM   17  C   UNL     1      62.971   9.945   5.124  1.00  0.00     0.418 C 
HETATM   18  F   UNL     1      64.108  10.590   5.494  1.00  0.00    -0.166 F 
HETATM   19  F   UNL     1      62.120  10.936   4.744  1.00  0.00    -0.166 F 
HETATM   20  F   UNL     1      62.471   9.435   6.281  1.00  0.00    -0.166 F 
ENDBRANCH   4  17
TORSDOF 2
ENDMDL
MODEL 3
REMARK VINA RESULT:      -5.1      3.845      6.099
REMARK  2 active torsions:
REMARK  status: ('A' for Active; 'I' for Inactive)
REMARK    1  A    between atoms: C_4  and  C_7 
REMARK    2  A    between atoms: C_5  and  N_14 
ROOT
HETATM    1  C   UNL     1      64.918   7.362   4.438  1.00  0.00     0.041 A 
HETATM    2  C   UNL     1      64.362   6.751   3.317  1.00  0.00     0.089 A 
HETATM    3  C   UNL     1      63.163   8.828   3.844  1.00  0.00     0.114 A 
HETATM    4  C   UNL     1      66.024   6.694   5.034  1.00  0.00     0.065 A 
HETATM    5  C   UNL     1      64.199   8.580   4.732  1.00  0.00     0.068 A 
HETATM    6  S   UNL     1      63.046   7.608   2.660  1.00  0.00    -0.058 SA
HETATM    7  N   UNL     1      64.751   5.600   2.733  1.00  0.00    -0.354 N 
ATOM      8  HN  UNL     1      64.283   5.222   1.909  1.00  0.00     0.166 HD
HETATM    9  C   UNL     1      62.279   9.951   3.876  1.00  0.00     0.109 C 
HETATM   10  N   UNL     1      61.587  10.886   3.945  1.00  0.00    -0.191 NA
HETATM   11  C   UNL     1      66.445   5.485   4.433  1.00  0.00     0.041 A 
HETATM   12  C   UNL     1      65.796   4.986   3.311  1.00  0.00     0.007 A 
HETATM   13  C   UNL     1      66.249   3.702   2.673  1.00  0.00     0.068 C 
ENDROOT
BRANCH   5  14
HETATM   14  N   UNL     1      64.485   9.408   5.761  1.00  0.00    -0.397 N 
HETATM   15  H   UNL     1      65.019   9.083   6.521  1.00  0.00     0.156 HD
HETATM   16  H   UNL     1      64.159  10.337   5.750  1.00  0.00     0.156 HD
ENDBRANCH   5  14
BRANCH   4  17
HETATM   17  C   UNL     1      66.773   7.177   6.249  1.00  0.00     0.418 C 
HETATM   18  F   UNL     1      67.289   8.432   6.169  1.00  0.00    -0.166 F 
HETATM   19  F   UNL     1      65.988   7.197   7.360  1.00  0.00    -0.166 F 
HETATM   20  F   UNL     1      67.837   6.385   6.548  1.00  0.00    -0.166 F 
ENDBRANCH   4  17
TORSDOF 2
ENDMDL
MODEL 4
REMARK VINA RESULT:      -4.9      3.843      6.182
REMARK  2 active torsions:
REMARK  status: ('A' for Active; 'I' for Inactive)
REMARK    1  A    between atoms: C_4  and  C_7 
REMARK    2  A    between atoms: C_5  and  N_14 
ROOT
HETATM    1  C   UNL     1      64.955   7.198   4.230  1.00  0.00     0.041 A 
HETATM    2  C   UNL     1      63.930   7.219   3.288  1.00  0.00     0.089 A 
HETATM    3  C   UNL     1      63.723   9.123   4.826  1.00  0.00     0.114 A 
HETATM    4  C   UNL     1      65.884   6.124   4.123  1.00  0.00     0.065 A 
HETATM    5  C   UNL     1      64.815   8.323   5.125  1.00  0.00     0.068 A 
HETATM    6  S   UNL     1      62.862   8.532   3.479  1.00  0.00    -0.058 SA
HETATM    7  N   UNL     1      63.716   6.341   2.289  1.00  0.00    -0.354 N 
ATOM      8  HN  UNL     1      62.934   6.433   1.641  1.00  0.00     0.166 HD
HETATM    9  C   UNL     1      63.329  10.304   5.527  1.00  0.00     0.109 C 
HETATM   10  N   UNL     1      63.051  11.261   6.132  1.00  0.00    -0.191 NA
HETATM   11  C   UNL     1      65.673   5.193   3.080  1.00  0.00     0.041 A 
HETATM   12  C   UNL     1      64.603   5.336   2.206  1.00  0.00     0.007 A 
HETATM   13  C   UNL     1      64.385   4.346   1.096  1.00  0.00     0.068 C 
ENDROOT
BRANCH   5  14
HETATM   14  N   UNL     1      65.648   8.590   6.155  1.00  0.00    -0.397 N 
HETATM   15  H   UNL     1      65.951   9.512   6.317  1.00  0.00     0.156 HD
HETATM   16  H   UNL     1      65.953   7.861   6.743  1.00  0.00     0.156 HD
ENDBRANCH   5  14
BRANCH   4  17
HETATM   17  C   UNL     1      67.065   5.909   5.035  1.00  0.00     0.418 C 
HETATM   18  F   UNL     1      66.781   5.808   6.360  1.00  0.00    -0.166 F 
HETATM   19  F   UNL     1      67.739   4.765   4.738  1.00  0.00    -0.166 F 
HETATM   20  F   UNL     1      67.971   6.919   4.952  1.00  0.00    -0.166 F 
ENDBRANCH   4  17
TORSDOF 2
ENDMDL
MODEL 5
REMARK VINA RESULT:      -4.6      2.827      3.858
REMARK  2 active torsions:
REMARK  status: ('A' for Active; 'I' for Inactive)
REMARK    1  A    between atoms: C_4  and  C_7 
REMARK    2  A    between atoms: C_5  and  N_14 
ROOT
HETATM    1  C   UNL     1      61.717   7.544   4.206  1.00  0.00     0.041 A 
HETATM    2  C   UNL     1      60.978   6.636   4.959  1.00  0.00     0.089 A 
HETATM    3  C   UNL     1      63.207   6.950   5.941  1.00  0.00     0.114 A 
HETATM    4  C   UNL     1      61.066   8.090   3.064  1.00  0.00     0.065 A 
HETATM    5  C   UNL     1      63.024   7.715   4.798  1.00  0.00     0.068 A 
HETATM    6  S   UNL     1      61.822   6.027   6.307  1.00  0.00    -0.058 SA
HETATM    7  N   UNL     1      59.719   6.214   4.731  1.00  0.00    -0.354 N 
ATOM      8  HN  UNL     1      59.251   5.541   5.337  1.00  0.00     0.166 HD
HETATM    9  C   UNL     1      64.389   6.909   6.743  1.00  0.00     0.109 C 
HETATM   10  N   UNL     1      65.375   6.912   7.364  1.00  0.00    -0.191 NA
HETATM   11  C   UNL     1      59.744   7.658   2.810  1.00  0.00     0.041 A 
HETATM   12  C   UNL     1      59.123   6.741   3.649  1.00  0.00     0.007 A 
HETATM   13  C   UNL     1      57.715   6.287   3.377  1.00  0.00     0.068 C 
ENDROOT
BRANCH   5  14
HETATM   14  N   UNL     1      63.986   8.527   4.307  1.00  0.00    -0.397 N 
HETATM   15  H   UNL     1      63.867   9.503   4.335  1.00  0.00     0.156 HD
HETATM   16  H   UNL     1      64.806   8.142   3.921  1.00  0.00     0.156 HD
ENDBRANCH   5  14
BRANCH   4  17
HETATM   17  C   UNL     1      61.679   9.087   2.114  1.00  0.00     0.418 C 
HETATM   18  F   UNL     1      62.056  10.272   2.659  1.00  0.00    -0.166 F 
HETATM   19  F   UNL     1      62.805   8.604   1.522  1.00  0.00    -0.166 F 
HETATM   20  F   UNL     1      60.832   9.424   1.104  1.00  0.00    -0.166 F 
ENDBRANCH   4  17
TORSDOF 2
ENDMDL
MODEL 6
REMARK VINA RESULT:      -4.6     13.305     14.070
REMARK  2 active torsions:
REMARK  status: ('A' for Active; 'I' for Inactive)
REMARK    1  A    between atoms: C_4  and  C_7 
REMARK    2  A    between atoms: C_5  and  N_14 
ROOT
HETATM    1  C   UNL     1      56.575   1.680  12.685  1.00  0.00     0.041 A 
HETATM    2  C   UNL     1      55.942   2.151  11.538  1.00  0.00     0.089 A 
HETATM    3  C   UNL     1      54.303   1.170  13.082  1.00  0.00     0.114 A 
HETATM    4  C   UNL     1      57.987   1.852  12.738  1.00  0.00     0.065 A 
HETATM    5  C   UNL     1      55.596   1.106  13.579  1.00  0.00     0.068 A 
HETATM    6  S   UNL     1      54.256   1.912  11.548  1.00  0.00    -0.058 SA
HETATM    7  N   UNL     1      56.511   2.749  10.473  1.00  0.00    -0.354 N 
ATOM      8  HN  UNL     1      55.968   3.064   9.670  1.00  0.00     0.166 HD
HETATM    9  C   UNL     1      53.127   0.689  13.736  1.00  0.00     0.109 C 
HETATM   10  N   UNL     1      52.199   0.282  14.312  1.00  0.00    -0.191 NA
HETATM   11  C   UNL     1      58.601   2.478  11.628  1.00  0.00     0.041 A 
HETATM   12  C   UNL     1      57.843   2.901  10.543  1.00  0.00     0.007 A 
HETATM   13  C   UNL     1      58.500   3.570   9.367  1.00  0.00     0.068 C 
ENDROOT
BRANCH   5  14
HETATM   14  N   UNL     1      55.885   0.557  14.779  1.00  0.00    -0.397 N 
HETATM   15  H   UNL     1      56.762   0.136  14.930  1.00  0.00     0.156 HD
HETATM   16  H   UNL     1      55.218   0.577  15.503  1.00  0.00     0.156 HD
ENDBRANCH   5  14
BRANCH   4  17
HETATM   17  C   UNL     1      58.869   1.417  13.881  1.00  0.00     0.418 C 
HETATM   18  F   UNL     1      58.789   0.106  14.227  1.00  0.00    -0.166 F 
HETATM   19  F   UNL     1      60.188   1.626  13.618  1.00  0.00    -0.166 F 
HETATM   20  F   UNL     1      58.596   2.095  15.028  1.00  0.00    -0.166 F 
ENDBRANCH   4  17
TORSDOF 2
ENDMDL
MODEL 7
REMARK VINA RESULT:      -4.6      4.063      4.627
REMARK  2 active torsions:
REMARK  status: ('A' for Active; 'I' for Inactive)
REMARK    1  A    between atoms: C_4  and  C_7 
REMARK    2  A    between atoms: C_5  and  N_14 
ROOT
HETATM    1  C   UNL     1      61.565   7.355   4.431  1.00  0.00     0.041 A 
HETATM    2  C   UNL     1      60.538   7.925   3.684  1.00  0.00     0.089 A 
HETATM    3  C   UNL     1      59.731   5.932   4.870  1.00  0.00     0.114 A 
HETATM    4  C   UNL     1      62.828   8.009   4.366  1.00  0.00     0.065 A 
HETATM    5  C   UNL     1      61.072   6.185   5.119  1.00  0.00     0.068 A 
HETATM    6  S   UNL     1      59.061   7.089   3.813  1.00  0.00    -0.058 SA
HETATM    7  N   UNL     1      60.602   9.024   2.907  1.00  0.00    -0.354 N 
ATOM      8  HN  UNL     1      59.796   9.374   2.390  1.00  0.00     0.166 HD
HETATM    9  C   UNL     1      58.965   4.852   5.408  1.00  0.00     0.109 C 
HETATM   10  N   UNL     1      58.385   3.955   5.874  1.00  0.00    -0.191 NA
HETATM   11  C   UNL     1      62.913   9.164   3.554  1.00  0.00     0.041 A 
HETATM   12  C   UNL     1      61.802   9.626   2.859  1.00  0.00     0.007 A 
HETATM   13  C   UNL     1      61.895  10.856   2.000  1.00  0.00     0.068 C 
ENDROOT
BRANCH   5  14
HETATM   14  N   UNL     1      61.819   5.400   5.926  1.00  0.00    -0.397 N 
HETATM   15  H   UNL     1      62.801   5.445   5.885  1.00  0.00     0.156 HD
HETATM   16  H   UNL     1      61.381   4.781   6.555  1.00  0.00     0.156 HD
ENDBRANCH   5  14
BRANCH   4  17
HETATM   17  C   UNL     1      64.071   7.563   5.092  1.00  0.00     0.418 C 
HETATM   18  F   UNL     1      63.964   7.457   6.442  1.00  0.00    -0.166 F 
HETATM   19  F   UNL     1      64.492   6.336   4.681  1.00  0.00    -0.166 F 
HETATM   20  F   UNL     1      65.116   8.411   4.894  1.00  0.00    -0.166 F 
ENDBRANCH   4  17
TORSDOF 2
ENDMDL
MODEL 8
REMARK VINA RESULT:      -4.5      3.315      5.599
REMARK  2 active torsions:
REMARK  status: ('A' for Active; 'I' for Inactive)
REMARK    1  A    between atoms: C_4  and  C_7 
REMARK    2  A    between atoms: C_5  and  N_14 
ROOT
HETATM    1  C   UNL     1      62.834   7.693   3.574  1.00  0.00     0.041 A 
HETATM    2  C   UNL     1      62.572   7.216   2.292  1.00  0.00     0.089 A 
HETATM    3  C   UNL     1      62.216   9.644   2.394  1.00  0.00     0.114 A 
HETATM    4  C   UNL     1      63.241   6.723   4.533  1.00  0.00     0.065 A 
HETATM    5  C   UNL     1      62.619   9.120   3.613  1.00  0.00     0.068 A 
HETATM    6  S   UNL     1      62.093   8.432   1.201  1.00  0.00    -0.058 SA
HETATM    7  N   UNL     1      62.656   5.944   1.857  1.00  0.00    -0.354 N 
ATOM      8  HN  UNL     1      62.443   5.681   0.895  1.00  0.00     0.166 HD
HETATM    9  C   UNL     1      61.930  11.018   2.122  1.00  0.00     0.109 C 
HETATM   10  N   UNL     1      61.710  12.149   1.952  1.00  0.00    -0.191 NA
HETATM   11  C   UNL     1      63.335   5.382   4.093  1.00  0.00     0.041 A 
HETATM   12  C   UNL     1      63.041   5.045   2.778  1.00  0.00     0.007 A 
HETATM   13  C   UNL     1      63.146   3.619   2.313  1.00  0.00     0.068 C 
ENDROOT
BRANCH   5  14
HETATM   14  N   UNL     1      62.784   9.889   4.712  1.00  0.00    -0.397 N 
HETATM   15  H   UNL     1      62.564   9.530   5.602  1.00  0.00     0.156 HD
HETATM   16  H   UNL     1      63.123  10.809   4.624  1.00  0.00     0.156 HD
ENDBRANCH   5  14
BRANCH   4  17
HETATM   17  C   UNL     1      63.574   7.019   5.973  1.00  0.00     0.418 C 
HETATM   18  F   UNL     1      62.603   7.641   6.691  1.00  0.00    -0.166 F 
HETATM   19  F   UNL     1      63.853   5.888   6.677  1.00  0.00    -0.166 F 
HETATM   20  F   UNL     1      64.663   7.823   6.096  1.00  0.00    -0.166 F 
ENDBRANCH   4  17
TORSDOF 2
ENDMDL
MODEL 9
REMARK VINA RESULT:      -4.5      4.386      6.232
REMARK  2 active torsions:
REMARK  status: ('A' for Active; 'I' for Inactive)
REMARK    1  A    between atoms: C_4  and  C_7 
REMARK    2  A    between atoms: C_5  and  N_14 
ROOT
HETATM    1  C   UNL     1      64.232   6.805   5.908  1.00  0.00     0.041 A 
HETATM    2  C   UNL     1      63.088   6.033   5.725  1.00  0.00     0.089 A 
HETATM    3  C   UNL     1      62.715   8.325   4.923  1.00  0.00     0.114 A 
HETATM    4  C   UNL     1      65.347   6.145   6.498  1.00  0.00     0.065 A 
HETATM    5  C   UNL     1      63.993   8.148   5.433  1.00  0.00     0.068 A 
HETATM    6  S   UNL     1      61.799   6.890   5.014  1.00  0.00    -0.058 SA
HETATM    7  N   UNL     1      62.914   4.735   6.042  1.00  0.00    -0.354 N 
ATOM      8  HN  UNL     1      62.036   4.245   5.872  1.00  0.00     0.166 HD
HETATM    9  C   UNL     1      62.187   9.536   4.380  1.00  0.00     0.109 C 
HETATM   10  N   UNL     1      61.805  10.548   3.946  1.00  0.00    -0.191 NA
HETATM   11  C   UNL     1      65.182   4.782   6.837  1.00  0.00     0.041 A 
HETATM   12  C   UNL     1      63.978   4.132   6.597  1.00  0.00     0.007 A 
HETATM   13  C   UNL     1      63.808   2.681   6.955  1.00  0.00     0.068 C 
ENDROOT
BRANCH   5  14
HETATM   14  N   UNL     1      64.902   9.146   5.470  1.00  0.00    -0.397 N 
HETATM   15  H   UNL     1      65.790   9.019   5.066  1.00  0.00     0.156 HD
HETATM   16  H   UNL     1      64.676  10.002   5.903  1.00  0.00     0.156 HD
ENDBRANCH   5  14
BRANCH   4  17
HETATM   17  C   UNL     1      66.679   6.788   6.786  1.00  0.00     0.418 C 
HETATM   18  F   UNL     1      67.312   7.345   5.721  1.00  0.00    -0.166 F 
HETATM   19  F   UNL     1      66.575   7.798   7.692  1.00  0.00    -0.166 F 
HETATM   20  F   UNL     1      67.577   5.906   7.300  1.00  0.00    -0.166 F 
ENDBRANCH   4  17
TORSDOF 2
ENDMDL
