MODEL 1
REMARK VINA RESULT:      -4.0      0.000      0.000
REMARK  3 active torsions:
REMARK  status: ('A' for Active; 'I' for Inactive)
REMARK    1  A    between atoms: C_1  and  N_2 
REMARK    2  A    between atoms: C_1  and  N_6 
REMARK    3  A    between atoms: N_2  and  C_7 
ROOT
HETATM    1  N   UNL     1      61.715  10.778   3.057  1.00  0.00    -0.375 N 
ATOM      2  HN  UNL     1      61.158  11.342   2.414  1.00  0.00     0.164 HD
HETATM    3  C   UNL     1      63.290   9.237   4.799  1.00  0.00     0.036 A 
HETATM    4  C   UNL     1      62.861   8.718   3.584  1.00  0.00     0.046 A 
HETATM    5  C   UNL     1      62.880  10.525   5.152  1.00  0.00     0.046 A 
HETATM    6  C   UNL     1      62.113  11.251   4.253  1.00  0.00     0.090 A 
HETATM    7  C   UNL     1      62.092   9.519   2.753  1.00  0.00     0.090 A 
ENDROOT
BRANCH   3   8
HETATM    8  N   UNL     1      64.101   8.544   5.728  1.00  0.00    -0.333 N 
HETATM    9  H   UNL     1      63.698   8.433   6.620  1.00  0.00     0.168 HD
BRANCH   8  10
HETATM   10  C   UNL     1      65.355   7.997   5.596  1.00  0.00     0.169 C 
HETATM   11  S   UNL     1      65.971   6.949   4.463  1.00  0.00    -0.041 SA
BRANCH  10  12
HETATM   12  N   UNL     1      66.220   8.490   6.535  1.00  0.00    -0.376 N 
HETATM   13  H   UNL     1      66.037   9.358   6.964  1.00  0.00     0.158 HD
HETATM   14  H   UNL     1      67.024   7.979   6.782  1.00  0.00     0.158 HD
ENDBRANCH  10  12
ENDBRANCH   8  10
ENDBRANCH   3   8
TORSDOF 3
ENDMDL
MODEL 2
REMARK VINA RESULT:      -4.0      2.304      4.522
REMARK  3 active torsions:
REMARK  status: ('A' for Active; 'I' for Inactive)
REMARK    1  A    between atoms: C_1  and  N_2 
REMARK    2  A    between atoms: C_1  and  N_6 
REMARK    3  A    between atoms: N_2  and  C_7 
ROOT
HETATM    1  N   UNL     1      63.549   9.984   5.726  1.00  0.00    -0.375 N 
ATOM      2  HN  UNL     1      64.072   9.977   6.602  1.00  0.00     0.164 HD
HETATM    3  C   UNL     1      62.145  10.033   3.293  1.00  0.00     0.036 A 
HETATM    4  C   UNL     1      62.088  11.112   4.167  1.00  0.00     0.046 A 
HETATM    5  C   UNL     1      62.877   8.907   3.676  1.00  0.00     0.046 A 
HETATM    6  C   UNL     1      63.564   8.936   4.881  1.00  0.00     0.090 A 
HETATM    7  C   UNL     1      62.804  11.046   5.353  1.00  0.00     0.090 A 
ENDROOT
BRANCH   3   8
HETATM    8  N   UNL     1      61.490   9.978   2.041  1.00  0.00    -0.333 N 
HETATM    9  H   UNL     1      61.193  10.851   1.696  1.00  0.00     0.168 HD
BRANCH   8  10
HETATM   10  C   UNL     1      61.199   8.911   1.223  1.00  0.00     0.169 C 
HETATM   11  S   UNL     1      62.183   7.974   0.267  1.00  0.00    -0.041 SA
BRANCH  10  12
HETATM   12  N   UNL     1      59.879   8.560   1.306  1.00  0.00    -0.376 N 
HETATM   13  H   UNL     1      59.225   9.190   1.687  1.00  0.00     0.158 HD
HETATM   14  H   UNL     1      59.583   7.677   0.985  1.00  0.00     0.158 HD
ENDBRANCH  10  12
ENDBRANCH   8  10
ENDBRANCH   3   8
TORSDOF 3
ENDMDL
MODEL 3
REMARK VINA RESULT:      -3.9      1.363      2.030
REMARK  3 active torsions:
REMARK  status: ('A' for Active; 'I' for Inactive)
REMARK    1  A    between atoms: C_1  and  N_2 
REMARK    2  A    between atoms: C_1  and  N_6 
REMARK    3  A    between atoms: N_2  and  C_7 
ROOT
HETATM    1  N   UNL     1      61.733  10.581   1.847  1.00  0.00    -0.375 N 
ATOM      2  HN  UNL     1      61.404  10.924   0.944  1.00  0.00     0.164 HD
HETATM    3  C   UNL     1      62.590   9.632   4.348  1.00  0.00     0.036 A 
HETATM    4  C   UNL     1      62.238  10.965   4.178  1.00  0.00     0.046 A 
HETATM    5  C   UNL     1      62.553   8.789   3.235  1.00  0.00     0.046 A 
HETATM    6  C   UNL     1      62.110   9.301   2.025  1.00  0.00     0.090 A 
HETATM    7  C   UNL     1      61.814  11.386   2.926  1.00  0.00     0.090 A 
ENDROOT
BRANCH   3   8
HETATM    8  N   UNL     1      63.012   9.062   5.572  1.00  0.00    -0.333 N 
HETATM    9  H   UNL     1      62.625   9.483   6.374  1.00  0.00     0.168 HD
BRANCH   8  10
HETATM   10  C   UNL     1      63.870   8.019   5.831  1.00  0.00     0.169 C 
HETATM   11  S   UNL     1      63.577   6.399   6.050  1.00  0.00    -0.041 SA
BRANCH  10  12
HETATM   12  N   UNL     1      65.176   8.429   5.823  1.00  0.00    -0.376 N 
HETATM   13  H   UNL     1      65.862   7.878   5.381  1.00  0.00     0.158 HD
HETATM   14  H   UNL     1      65.430   9.275   6.260  1.00  0.00     0.158 HD
ENDBRANCH  10  12
ENDBRANCH   8  10
ENDBRANCH   3   8
TORSDOF 3
ENDMDL
MODEL 4
REMARK VINA RESULT:      -3.8      2.439      4.652
REMARK  3 active torsions:
REMARK  status: ('A' for Active; 'I' for Inactive)
REMARK    1  A    between atoms: C_1  and  N_2 
REMARK    2  A    between atoms: C_1  and  N_6 
REMARK    3  A    between atoms: N_2  and  C_7 
ROOT
HETATM    1  N   UNL     1      67.522   6.896   4.609  1.00  0.00    -0.375 N 
ATOM      2  HN  UNL     1      68.399   6.462   4.319  1.00  0.00     0.164 HD
HETATM    3  C   UNL     1      65.123   8.134   5.385  1.00  0.00     0.036 A 
HETATM    4  C   UNL     1      66.298   8.356   6.095  1.00  0.00     0.046 A 
HETATM    5  C   UNL     1      65.156   7.245   4.309  1.00  0.00     0.046 A 
HETATM    6  C   UNL     1      66.367   6.669   3.956  1.00  0.00     0.090 A 
HETATM    7  C   UNL     1      67.459   7.728   5.669  1.00  0.00     0.090 A 
ENDROOT
BRANCH   3   8
HETATM    8  N   UNL     1      63.876   8.729   5.690  1.00  0.00    -0.333 N 
HETATM    9  H   UNL     1      63.352   8.252   6.373  1.00  0.00     0.168 HD
BRANCH   8  10
HETATM   10  C   UNL     1      63.274   9.861   5.195  1.00  0.00     0.169 C 
HETATM   11  S   UNL     1      62.174  10.058   3.965  1.00  0.00    -0.041 SA
BRANCH  10  12
HETATM   12  N   UNL     1      63.617  10.970   5.919  1.00  0.00    -0.376 N 
HETATM   13  H   UNL     1      63.545  10.958   6.901  1.00  0.00     0.158 HD
HETATM   14  H   UNL     1      63.935  11.781   5.459  1.00  0.00     0.158 HD
ENDBRANCH  10  12
ENDBRANCH   8  10
ENDBRANCH   3   8
TORSDOF 3
ENDMDL
MODEL 5
REMARK VINA RESULT:      -3.7      2.279      4.998
REMARK  3 active torsions:
REMARK  status: ('A' for Active; 'I' for Inactive)
REMARK    1  A    between atoms: C_1  and  N_2 
REMARK    2  A    between atoms: C_1  and  N_6 
REMARK    3  A    between atoms: N_2  and  C_7 
ROOT
HETATM    1  N   UNL     1      68.075   6.748   6.523  1.00  0.00    -0.375 N 
ATOM      2  HN  UNL     1      69.026   6.414   6.682  1.00  0.00     0.164 HD
HETATM    3  C   UNL     1      65.448   7.626   6.054  1.00  0.00     0.036 A 
HETATM    4  C   UNL     1      66.465   7.914   5.150  1.00  0.00     0.046 A 
HETATM    5  C   UNL     1      65.775   6.932   7.221  1.00  0.00     0.046 A 
HETATM    6  C   UNL     1      67.083   6.509   7.401  1.00  0.00     0.090 A 
HETATM    7  C   UNL     1      67.744   7.452   5.421  1.00  0.00     0.090 A 
ENDROOT
BRANCH   3   8
HETATM    8  N   UNL     1      64.097   8.009   5.891  1.00  0.00    -0.333 N 
HETATM    9  H   UNL     1      63.460   7.515   6.456  1.00  0.00     0.168 HD
BRANCH   8  10
HETATM   10  C   UNL     1      63.521   8.956   5.076  1.00  0.00     0.169 C 
HETATM   11  S   UNL     1      62.816   8.818   3.578  1.00  0.00    -0.041 SA
BRANCH  10  12
HETATM   12  N   UNL     1      63.484  10.183   5.681  1.00  0.00    -0.376 N 
HETATM   13  H   UNL     1      62.937  10.905   5.295  1.00  0.00     0.158 HD
HETATM   14  H   UNL     1      64.002  10.343   6.503  1.00  0.00     0.158 HD
ENDBRANCH  10  12
ENDBRANCH   8  10
ENDBRANCH   3   8
TORSDOF 3
ENDMDL
MODEL 6
REMARK VINA RESULT:      -3.5      1.846      2.657
REMARK  3 active torsions:
REMARK  status: ('A' for Active; 'I' for Inactive)
REMARK    1  A    between atoms: C_1  and  N_2 
REMARK    2  A    between atoms: C_1  and  N_6 
REMARK    3  A    between atoms: N_2  and  C_7 
ROOT
HETATM    1  N   UNL     1      62.858   7.898   2.938  1.00  0.00    -0.375 N 
ATOM      2  HN  UNL     1      62.211   7.704   2.173  1.00  0.00     0.164 HD
HETATM    3  C   UNL     1      64.607   8.412   5.076  1.00  0.00     0.036 A 
HETATM    4  C   UNL     1      63.575   9.294   4.775  1.00  0.00     0.046 A 
HETATM    5  C   UNL     1      64.780   7.292   4.261  1.00  0.00     0.046 A 
HETATM    6  C   UNL     1      63.883   7.075   3.225  1.00  0.00     0.090 A 
HETATM    7  C   UNL     1      62.733   8.994   3.715  1.00  0.00     0.090 A 
ENDROOT
BRANCH   3   8
HETATM    8  N   UNL     1      65.520   8.579   6.143  1.00  0.00    -0.333 N 
HETATM    9  H   UNL     1      65.486   9.463   6.576  1.00  0.00     0.168 HD
BRANCH   8  10
HETATM   10  C   UNL     1      66.445   7.715   6.679  1.00  0.00     0.169 C 
HETATM   11  S   UNL     1      66.260   6.425   7.709  1.00  0.00    -0.041 SA
BRANCH  10  12
HETATM   12  N   UNL     1      67.701   7.957   6.190  1.00  0.00    -0.376 N 
HETATM   13  H   UNL     1      68.174   7.260   5.680  1.00  0.00     0.158 HD
HETATM   14  H   UNL     1      68.131   8.829   6.348  1.00  0.00     0.158 HD
ENDBRANCH  10  12
ENDBRANCH   8  10
ENDBRANCH   3   8
TORSDOF 3
ENDMDL
MODEL 7
REMARK VINA RESULT:      -3.5      2.577      4.370
REMARK  3 active torsions:
REMARK  status: ('A' for Active; 'I' for Inactive)
REMARK    1  A    between atoms: C_1  and  N_2 
REMARK    2  A    between atoms: C_1  and  N_6 
REMARK    3  A    between atoms: N_2  and  C_7 
ROOT
HETATM    1  N   UNL     1      63.820   9.960   5.690  1.00  0.00    -0.375 N 
ATOM      2  HN  UNL     1      64.404  10.039   6.524  1.00  0.00     0.164 HD
HETATM    3  C   UNL     1      62.185   9.708   3.420  1.00  0.00     0.036 A 
HETATM    4  C   UNL     1      63.194   8.786   3.674  1.00  0.00     0.046 A 
HETATM    5  C   UNL     1      62.037  10.787   4.294  1.00  0.00     0.046 A 
HETATM    6  C   UNL     1      62.860  10.861   5.408  1.00  0.00     0.090 A 
HETATM    7  C   UNL     1      63.971   8.948   4.811  1.00  0.00     0.090 A 
ENDROOT
BRANCH   3   8
HETATM    8  N   UNL     1      61.303   9.649   2.316  1.00  0.00    -0.333 N 
HETATM    9  H   UNL     1      60.910  10.515   2.060  1.00  0.00     0.168 HD
BRANCH   8  10
HETATM   10  C   UNL     1      60.903   8.588   1.539  1.00  0.00     0.169 C 
HETATM   11  S   UNL     1      59.831   7.357   1.848  1.00  0.00    -0.041 SA
BRANCH  10  12
HETATM   12  N   UNL     1      61.452   8.647   0.287  1.00  0.00    -0.376 N 
HETATM   13  H   UNL     1      62.429   8.592   0.176  1.00  0.00     0.158 HD
HETATM   14  H   UNL     1      60.872   8.743  -0.502  1.00  0.00     0.158 HD
ENDBRANCH  10  12
ENDBRANCH   8  10
ENDBRANCH   3   8
TORSDOF 3
ENDMDL
MODEL 8
REMARK VINA RESULT:      -3.5      2.091      4.305
REMARK  3 active torsions:
REMARK  status: ('A' for Active; 'I' for Inactive)
REMARK    1  A    between atoms: C_1  and  N_2 
REMARK    2  A    between atoms: C_1  and  N_6 
REMARK    3  A    between atoms: N_2  and  C_7 
ROOT
HETATM    1  N   UNL     1      64.505   7.119   6.370  1.00  0.00    -0.375 N 
ATOM      2  HN  UNL     1      65.059   6.456   6.913  1.00  0.00     0.164 HD
HETATM    3  C   UNL     1      62.967   8.968   4.918  1.00  0.00     0.036 A 
HETATM    4  C   UNL     1      62.364   7.893   5.560  1.00  0.00     0.046 A 
HETATM    5  C   UNL     1      64.358   9.079   4.974  1.00  0.00     0.046 A 
HETATM    6  C   UNL     1      65.072   8.148   5.714  1.00  0.00     0.090 A 
HETATM    7  C   UNL     1      63.164   7.010   6.271  1.00  0.00     0.090 A 
ENDROOT
BRANCH   3   8
HETATM    8  N   UNL     1      62.272   9.957   4.184  1.00  0.00    -0.333 N 
HETATM    9  H   UNL     1      61.900  10.687   4.731  1.00  0.00     0.168 HD
BRANCH   8  10
HETATM   10  C   UNL     1      62.029  10.073   2.836  1.00  0.00     0.169 C 
HETATM   11  S   UNL     1      62.121   8.951   1.614  1.00  0.00    -0.041 SA
BRANCH  10  12
HETATM   12  N   UNL     1      61.566  11.320   2.515  1.00  0.00    -0.376 N 
HETATM   13  H   UNL     1      61.204  11.907   3.218  1.00  0.00     0.158 HD
HETATM   14  H   UNL     1      61.595  11.631   1.581  1.00  0.00     0.158 HD
ENDBRANCH  10  12
ENDBRANCH   8  10
ENDBRANCH   3   8
TORSDOF 3
ENDMDL
MODEL 9
REMARK VINA RESULT:      -3.5      3.291      6.237
REMARK  3 active torsions:
REMARK  status: ('A' for Active; 'I' for Inactive)
REMARK    1  A    between atoms: C_1  and  N_2 
REMARK    2  A    between atoms: C_1  and  N_6 
REMARK    3  A    between atoms: N_2  and  C_7 
ROOT
HETATM    1  N   UNL     1      67.921   4.758   8.993  1.00  0.00    -0.375 N 
ATOM      2  HN  UNL     1      68.621   4.207   9.490  1.00  0.00     0.164 HD
HETATM    3  C   UNL     1      65.957   6.262   7.660  1.00  0.00     0.036 A 
HETATM    4  C   UNL     1      66.067   4.893   7.450  1.00  0.00     0.046 A 
HETATM    5  C   UNL     1      66.876   6.877   8.513  1.00  0.00     0.046 A 
HETATM    6  C   UNL     1      67.819   6.090   9.158  1.00  0.00     0.090 A 
HETATM    7  C   UNL     1      67.047   4.191   8.136  1.00  0.00     0.090 A 
ENDROOT
BRANCH   3   8
HETATM    8  N   UNL     1      64.990   7.094   7.051  1.00  0.00    -0.333 N 
HETATM    9  H   UNL     1      64.253   7.367   7.644  1.00  0.00     0.168 HD
BRANCH   8  10
HETATM   10  C   UNL     1      64.904   7.585   5.769  1.00  0.00     0.169 C 
HETATM   11  S   UNL     1      64.872   6.803   4.304  1.00  0.00    -0.041 SA
BRANCH  10  12
HETATM   12  N   UNL     1      64.746   8.945   5.763  1.00  0.00    -0.376 N 
HETATM   13  H   UNL     1      65.470   9.523   5.429  1.00  0.00     0.158 HD
HETATM   14  H   UNL     1      63.908   9.345   6.091  1.00  0.00     0.158 HD
ENDBRANCH  10  12
ENDBRANCH   8  10
ENDBRANCH   3   8
TORSDOF 3
ENDMDL
