MODEL 1
REMARK VINA RESULT:      -5.0      0.000      0.000
REMARK  2 active torsions:
REMARK  status: ('A' for Active; 'I' for Inactive)
REMARK    1  A    between atoms: C_3  and  C_4 
REMARK    2  A    between atoms: C_9  and  N_10 
ROOT
HETATM    1  C   UNL     1      63.275   9.286   4.607  1.00  0.00     0.001 A 
HETATM    2  C   UNL     1      62.938   8.858   3.312  1.00  0.00     0.043 A 
HETATM    3  C   UNL     1      62.143   9.639   2.466  1.00  0.00     0.026 A 
HETATM    4  C   UNL     1      62.821  10.543   5.031  1.00  0.00     0.014 A 
HETATM    5  C   UNL     1      62.079  11.357   4.174  1.00  0.00     0.003 A 
HETATM    6  C   UNL     1      61.765  10.914   2.889  1.00  0.00     0.029 A 
ENDROOT
BRANCH   1   7
HETATM    7  C   UNL     1      64.095   8.444   5.468  1.00  0.00     0.102 A 
HETATM    8  C   UNL     1      63.904   7.277   6.179  1.00  0.00     0.127 A 
HETATM    9  N   UNL     1      65.056   6.917   6.833  1.00  0.00    -0.354 N 
HETATM   10  C   UNL     1      65.898   7.867   6.499  1.00  0.00     0.233 A 
ATOM     11  HN  UNL     1      65.218   6.108   7.432  1.00  0.00     0.166 HD
HETATM   12  O   UNL     1      65.397   8.829   5.679  1.00  0.00    -0.304 OA
ENDBRANCH   1   7
BRANCH   3  13
HETATM   13  N   UNL     1      61.933   9.247   1.137  1.00  0.00    -0.399 N 
HETATM   14  H   UNL     1      62.074   9.891   0.406  1.00  0.00     0.156 HD
HETATM   15  H   UNL     1      61.642   8.328   0.936  1.00  0.00     0.156 HD
ENDBRANCH   3  13
TORSDOF 2
ENDMDL
MODEL 2
REMARK VINA RESULT:      -4.8      1.598      2.126
REMARK  2 active torsions:
REMARK  status: ('A' for Active; 'I' for Inactive)
REMARK    1  A    between atoms: C_3  and  C_4 
REMARK    2  A    between atoms: C_9  and  N_10 
ROOT
HETATM    1  C   UNL     1      63.937   8.736   4.765  1.00  0.00     0.001 A 
HETATM    2  C   UNL     1      63.545  10.048   5.082  1.00  0.00     0.043 A 
HETATM    3  C   UNL     1      62.587  10.730   4.324  1.00  0.00     0.026 A 
HETATM    4  C   UNL     1      63.316   8.101   3.680  1.00  0.00     0.014 A 
HETATM    5  C   UNL     1      62.316   8.749   2.954  1.00  0.00     0.003 A 
HETATM    6  C   UNL     1      61.938  10.048   3.294  1.00  0.00     0.029 A 
ENDROOT
BRANCH   1   7
HETATM    7  C   UNL     1      64.945   8.056   5.567  1.00  0.00     0.102 A 
HETATM    8  C   UNL     1      65.218   6.748   5.910  1.00  0.00     0.127 A 
HETATM    9  N   UNL     1      66.330   6.682   6.712  1.00  0.00    -0.354 N 
HETATM   10  C   UNL     1      66.692   7.938   6.826  1.00  0.00     0.233 A 
ATOM     11  HN  UNL     1      66.768   5.856   7.120  1.00  0.00     0.166 HD
HETATM   12  O   UNL     1      65.908   8.833   6.167  1.00  0.00    -0.304 OA
ENDBRANCH   1   7
BRANCH   3  13
HETATM   13  N   UNL     1      62.123  11.984   4.741  1.00  0.00    -0.399 N 
HETATM   14  H   UNL     1      61.786  12.104   5.657  1.00  0.00     0.156 HD
HETATM   15  H   UNL     1      62.133  12.745   4.115  1.00  0.00     0.156 HD
ENDBRANCH   3  13
TORSDOF 2
ENDMDL
MODEL 3
REMARK VINA RESULT:      -4.6      1.598      2.433
REMARK  2 active torsions:
REMARK  status: ('A' for Active; 'I' for Inactive)
REMARK    1  A    between atoms: C_3  and  C_4 
REMARK    2  A    between atoms: C_9  and  N_10 
ROOT
HETATM    1  C   UNL     1      63.076   8.344   3.462  1.00  0.00     0.001 A 
HETATM    2  C   UNL     1      62.569   9.652   3.380  1.00  0.00     0.043 A 
HETATM    3  C   UNL     1      61.985  10.139   2.205  1.00  0.00     0.026 A 
HETATM    4  C   UNL     1      62.953   7.512   2.340  1.00  0.00     0.014 A 
HETATM    5  C   UNL     1      62.318   7.966   1.184  1.00  0.00     0.003 A 
HETATM    6  C   UNL     1      61.814   9.266   1.129  1.00  0.00     0.029 A 
ENDROOT
BRANCH   1   7
HETATM    7  C   UNL     1      63.690   7.871   4.696  1.00  0.00     0.102 A 
HETATM    8  C   UNL     1      64.807   8.204   5.433  1.00  0.00     0.127 A 
HETATM    9  N   UNL     1      64.903   7.408   6.548  1.00  0.00    -0.354 N 
HETATM   10  C   UNL     1      63.851   6.629   6.451  1.00  0.00     0.233 A 
ATOM     11  HN  UNL     1      65.619   7.419   7.274  1.00  0.00     0.166 HD
HETATM   12  O   UNL     1      63.067   6.842   5.360  1.00  0.00    -0.304 OA
ENDBRANCH   1   7
BRANCH   3  13
HETATM   13  N   UNL     1      61.373  11.399   2.194  1.00  0.00    -0.399 N 
HETATM   14  H   UNL     1      61.900  12.200   1.971  1.00  0.00     0.156 HD
HETATM   15  H   UNL     1      60.416  11.483   2.411  1.00  0.00     0.156 HD
ENDBRANCH   3  13
TORSDOF 2
ENDMDL
MODEL 4
REMARK VINA RESULT:      -4.6      2.056      5.387
REMARK  2 active torsions:
REMARK  status: ('A' for Active; 'I' for Inactive)
REMARK    1  A    between atoms: C_3  and  C_4 
REMARK    2  A    between atoms: C_9  and  N_10 
ROOT
HETATM    1  C   UNL     1      65.438   7.834   5.169  1.00  0.00     0.001 A 
HETATM    2  C   UNL     1      66.052   7.691   6.425  1.00  0.00     0.043 A 
HETATM    3  C   UNL     1      67.091   6.775   6.632  1.00  0.00     0.026 A 
HETATM    4  C   UNL     1      65.913   7.056   4.104  1.00  0.00     0.014 A 
HETATM    5  C   UNL     1      66.987   6.185   4.284  1.00  0.00     0.003 A 
HETATM    6  C   UNL     1      67.588   6.066   5.538  1.00  0.00     0.029 A 
ENDROOT
BRANCH   1   7
HETATM    7  C   UNL     1      64.351   8.788   4.989  1.00  0.00     0.102 A 
HETATM    8  C   UNL     1      63.223   8.861   4.198  1.00  0.00     0.127 A 
HETATM    9  N   UNL     1      62.531  10.019   4.452  1.00  0.00    -0.354 N 
HETATM   10  C   UNL     1      63.254  10.602   5.380  1.00  0.00     0.233 A 
ATOM     11  HN  UNL     1      61.665  10.346   4.024  1.00  0.00     0.166 HD
HETATM   12  O   UNL     1      64.371   9.925   5.759  1.00  0.00    -0.304 OA
ENDBRANCH   1   7
BRANCH   3  13
HETATM   13  N   UNL     1      67.770   6.748   7.857  1.00  0.00    -0.399 N 
HETATM   14  H   UNL     1      67.606   7.451   8.526  1.00  0.00     0.156 HD
HETATM   15  H   UNL     1      68.412   6.026   8.047  1.00  0.00     0.156 HD
ENDBRANCH   3  13
TORSDOF 2
ENDMDL
MODEL 5
REMARK VINA RESULT:      -4.5      1.747      4.907
REMARK  2 active torsions:
REMARK  status: ('A' for Active; 'I' for Inactive)
REMARK    1  A    between atoms: C_3  and  C_4 
REMARK    2  A    between atoms: C_9  and  N_10 
ROOT
HETATM    1  C   UNL     1      63.235   8.564   4.662  1.00  0.00     0.001 A 
HETATM    2  C   UNL     1      64.614   8.675   4.910  1.00  0.00     0.043 A 
HETATM    3  C   UNL     1      65.257   7.859   5.849  1.00  0.00     0.026 A 
HETATM    4  C   UNL     1      62.511   7.586   5.357  1.00  0.00     0.014 A 
HETATM    5  C   UNL     1      63.153   6.727   6.250  1.00  0.00     0.003 A 
HETATM    6  C   UNL     1      64.525   6.849   6.473  1.00  0.00     0.029 A 
ENDROOT
BRANCH   1   7
HETATM    7  C   UNL     1      62.593   9.436   3.687  1.00  0.00     0.102 A 
HETATM    8  C   UNL     1      61.983  10.673   3.720  1.00  0.00     0.127 A 
HETATM    9  N   UNL     1      61.545  11.027   2.468  1.00  0.00    -0.354 N 
HETATM   10  C   UNL     1      61.901  10.005   1.726  1.00  0.00     0.233 A 
ATOM     11  HN  UNL     1      61.060  11.879   2.184  1.00  0.00     0.166 HD
HETATM   12  O   UNL     1      62.538   9.000   2.385  1.00  0.00    -0.304 OA
ENDBRANCH   1   7
BRANCH   3  13
HETATM   13  N   UNL     1      66.651   7.903   5.979  1.00  0.00    -0.399 N 
HETATM   14  H   UNL     1      67.177   7.073   5.917  1.00  0.00     0.156 HD
HETATM   15  H   UNL     1      67.104   8.763   6.136  1.00  0.00     0.156 HD
ENDBRANCH   3  13
TORSDOF 2
ENDMDL
MODEL 6
REMARK VINA RESULT:      -4.3      1.767      4.984
REMARK  2 active torsions:
REMARK  status: ('A' for Active; 'I' for Inactive)
REMARK    1  A    between atoms: C_3  and  C_4 
REMARK    2  A    between atoms: C_9  and  N_10 
ROOT
HETATM    1  C   UNL     1      63.241   8.337   3.814  1.00  0.00     0.001 A 
HETATM    2  C   UNL     1      63.647   8.279   5.158  1.00  0.00     0.043 A 
HETATM    3  C   UNL     1      64.288   7.150   5.681  1.00  0.00     0.026 A 
HETATM    4  C   UNL     1      63.523   7.242   2.986  1.00  0.00     0.014 A 
HETATM    5  C   UNL     1      64.215   6.137   3.481  1.00  0.00     0.003 A 
HETATM    6  C   UNL     1      64.617   6.105   4.817  1.00  0.00     0.029 A 
ENDROOT
BRANCH   1   7
HETATM    7  C   UNL     1      62.565   9.523   3.302  1.00  0.00     0.102 A 
HETATM    8  C   UNL     1      61.939   9.870   2.123  1.00  0.00     0.127 A 
HETATM    9  N   UNL     1      61.460  11.155   2.192  1.00  0.00    -0.354 N 
HETATM   10  C   UNL     1      61.807  11.539   3.399  1.00  0.00     0.233 A 
ATOM     11  HN  UNL     1      60.958  11.683   1.479  1.00  0.00     0.166 HD
HETATM   12  O   UNL     1      62.479  10.613   4.134  1.00  0.00    -0.304 OA
ENDBRANCH   1   7
BRANCH   3  13
HETATM   13  N   UNL     1      64.797   7.172   6.986  1.00  0.00    -0.399 N 
HETATM   14  H   UNL     1      64.277   6.777   7.723  1.00  0.00     0.156 HD
HETATM   15  H   UNL     1      65.673   7.585   7.166  1.00  0.00     0.156 HD
ENDBRANCH   3  13
TORSDOF 2
ENDMDL
MODEL 7
REMARK VINA RESULT:      -4.3      2.791      5.132
REMARK  2 active torsions:
REMARK  status: ('A' for Active; 'I' for Inactive)
REMARK    1  A    between atoms: C_3  and  C_4 
REMARK    2  A    between atoms: C_9  and  N_10 
ROOT
HETATM    1  C   UNL     1      62.224   8.546   3.289  1.00  0.00     0.001 A 
HETATM    2  C   UNL     1      62.209   9.685   4.112  1.00  0.00     0.043 A 
HETATM    3  C   UNL     1      63.195   9.900   5.082  1.00  0.00     0.026 A 
HETATM    4  C   UNL     1      63.278   7.633   3.435  1.00  0.00     0.014 A 
HETATM    5  C   UNL     1      64.298   7.869   4.356  1.00  0.00     0.003 A 
HETATM    6  C   UNL     1      64.268   9.011   5.156  1.00  0.00     0.029 A 
ENDROOT
BRANCH   1   7
HETATM    7  C   UNL     1      61.176   8.344   2.296  1.00  0.00     0.102 A 
HETATM    8  C   UNL     1      60.994   8.682   0.971  1.00  0.00     0.127 A 
HETATM    9  N   UNL     1      59.783   8.219   0.518  1.00  0.00    -0.354 N 
HETATM   10  C   UNL     1      59.278   7.622   1.572  1.00  0.00     0.233 A 
ATOM     11  HN  UNL     1      59.376   8.317  -0.412  1.00  0.00     0.166 HD
HETATM   12  O   UNL     1      60.055   7.653   2.688  1.00  0.00    -0.304 OA
ENDBRANCH   1   7
BRANCH   3  13
HETATM   13  N   UNL     1      63.227  11.105   5.796  1.00  0.00    -0.399 N 
HETATM   14  H   UNL     1      62.584  11.819   5.584  1.00  0.00     0.156 HD
HETATM   15  H   UNL     1      63.894  11.237   6.508  1.00  0.00     0.156 HD
ENDBRANCH   3  13
TORSDOF 2
ENDMDL
MODEL 8
REMARK VINA RESULT:      -4.3      2.453      4.701
REMARK  2 active torsions:
REMARK  status: ('A' for Active; 'I' for Inactive)
REMARK    1  A    between atoms: C_3  and  C_4 
REMARK    2  A    between atoms: C_9  and  N_10 
ROOT
HETATM    1  C   UNL     1      62.390   9.125   3.100  1.00  0.00     0.001 A 
HETATM    2  C   UNL     1      63.368   8.575   3.946  1.00  0.00     0.043 A 
HETATM    3  C   UNL     1      63.860   9.278   5.052  1.00  0.00     0.026 A 
HETATM    4  C   UNL     1      61.883  10.396   3.408  1.00  0.00     0.014 A 
HETATM    5  C   UNL     1      62.322  11.080   4.542  1.00  0.00     0.003 A 
HETATM    6  C   UNL     1      63.288  10.509   5.372  1.00  0.00     0.029 A 
ENDROOT
BRANCH   1   7
HETATM    7  C   UNL     1      61.906   8.372   1.950  1.00  0.00     0.102 A 
HETATM    8  C   UNL     1      62.377   7.322   1.190  1.00  0.00     0.127 A 
HETATM    9  N   UNL     1      61.479   7.004   0.200  1.00  0.00    -0.354 N 
HETATM   10  C   UNL     1      60.505   7.861   0.394  1.00  0.00     0.233 A 
ATOM     11  HN  UNL     1      61.553   6.277  -0.512  1.00  0.00     0.166 HD
HETATM   12  O   UNL     1      60.685   8.725   1.429  1.00  0.00    -0.304 OA
ENDBRANCH   1   7
BRANCH   3  13
HETATM   13  N   UNL     1      64.737   8.653   5.948  1.00  0.00    -0.399 N 
HETATM   14  H   UNL     1      64.851   7.676   5.924  1.00  0.00     0.156 HD
HETATM   15  H   UNL     1      65.236   9.192   6.604  1.00  0.00     0.156 HD
ENDBRANCH   3  13
TORSDOF 2
ENDMDL
MODEL 9
REMARK VINA RESULT:      -4.3      2.710      3.792
REMARK  2 active torsions:
REMARK  status: ('A' for Active; 'I' for Inactive)
REMARK    1  A    between atoms: C_3  and  C_4 
REMARK    2  A    between atoms: C_9  and  N_10 
ROOT
HETATM    1  C   UNL     1      62.737   8.546   2.631  1.00  0.00     0.001 A 
HETATM    2  C   UNL     1      63.245   7.235   2.641  1.00  0.00     0.043 A 
HETATM    3  C   UNL     1      63.165   6.411   1.512  1.00  0.00     0.026 A 
HETATM    4  C   UNL     1      62.172   9.031   1.443  1.00  0.00     0.014 A 
HETATM    5  C   UNL     1      62.143   8.239   0.295  1.00  0.00     0.003 A 
HETATM    6  C   UNL     1      62.661   6.944   0.325  1.00  0.00     0.029 A 
ENDROOT
BRANCH   1   7
HETATM    7  C   UNL     1      62.825   9.375   3.825  1.00  0.00     0.102 A 
HETATM    8  C   UNL     1      63.379   9.241   5.082  1.00  0.00     0.127 A 
HETATM    9  N   UNL     1      63.158  10.371   5.829  1.00  0.00    -0.354 N 
HETATM   10  C   UNL     1      62.486  11.145   5.009  1.00  0.00     0.233 A 
ATOM     11  HN  UNL     1      63.446  10.563   6.788  1.00  0.00     0.166 HD
HETATM   12  O   UNL     1      62.242  10.618   3.779  1.00  0.00    -0.304 OA
ENDBRANCH   1   7
BRANCH   3  13
HETATM   13  N   UNL     1      63.795   5.159   1.510  1.00  0.00    -0.399 N 
HETATM   14  H   UNL     1      64.398   4.911   2.248  1.00  0.00     0.156 HD
HETATM   15  H   UNL     1      63.636   4.529   0.771  1.00  0.00     0.156 HD
ENDBRANCH   3  13
TORSDOF 2
ENDMDL
