MODEL 1
REMARK VINA RESULT:      -5.3      0.000      0.000
REMARK  0 active torsions:
REMARK  status: ('A' for Active; 'I' for Inactive)
ROOT
HETATM    1  C   UNL     1      62.633   9.756   3.923  1.00  0.00     0.046 A 
HETATM    2  C   UNL     1      62.949   9.532   5.346  1.00  0.00     0.164 C 
HETATM    3  C   UNL     1      62.723   8.675   3.041  1.00  0.00     0.082 A 
HETATM    4  C   UNL     1      62.186  11.004   3.485  1.00  0.00     0.060 A 
HETATM    5  O   UNL     1      63.142   7.423   3.407  1.00  0.00    -0.350 OA
HETATM    6  O   UNL     1      63.023  10.466   6.137  1.00  0.00    -0.292 OA
HETATM    7  C   UNL     1      62.334   8.834   1.711  1.00  0.00     0.041 A 
HETATM    8  C   UNL     1      61.809  11.147   2.155  1.00  0.00     0.117 A 
HETATM    9  C   UNL     1      63.105   8.097   5.753  1.00  0.00     0.110 C 
HETATM   10  C   UNL     1      63.866   7.398   4.646  1.00  0.00     0.183 C 
HETATM   11  C   UNL     1      61.875  10.076   1.267  1.00  0.00     0.045 A 
HETATM   12  F   UNL     1      61.355  12.331   1.724  1.00  0.00    -0.206 F 
ENDROOT
TORSDOF 0
ENDMDL
MODEL 2
REMARK VINA RESULT:      -5.2      1.028      2.606
REMARK  0 active torsions:
REMARK  status: ('A' for Active; 'I' for Inactive)
ROOT
HETATM    1  C   UNL     1      62.741   9.112   3.409  1.00  0.00     0.046 A 
HETATM    2  C   UNL     1      63.231   7.758   3.088  1.00  0.00     0.164 C 
HETATM    3  C   UNL     1      62.911   9.592   4.711  1.00  0.00     0.082 A 
HETATM    4  C   UNL     1      62.183   9.917   2.414  1.00  0.00     0.060 A 
HETATM    5  O   UNL     1      63.460   8.859   5.730  1.00  0.00    -0.350 OA
HETATM    6  O   UNL     1      62.987   7.231   2.008  1.00  0.00    -0.292 OA
HETATM    7  C   UNL     1      62.547  10.903   5.017  1.00  0.00     0.041 A 
HETATM    8  C   UNL     1      61.821  11.219   2.738  1.00  0.00     0.117 A 
HETATM    9  C   UNL     1      64.088   7.118   4.139  1.00  0.00     0.110 C 
HETATM   10  C   UNL     1      63.470   7.446   5.482  1.00  0.00     0.183 C 
HETATM   11  C   UNL     1      62.000  11.720   4.025  1.00  0.00     0.045 A 
HETATM   12  F   UNL     1      61.308  12.013   1.789  1.00  0.00    -0.206 F 
ENDROOT
TORSDOF 0
ENDMDL
MODEL 3
REMARK VINA RESULT:      -5.1      1.813      2.247
REMARK  0 active torsions:
REMARK  status: ('A' for Active; 'I' for Inactive)
ROOT
HETATM    1  C   UNL     1      63.984   8.991   4.747  1.00  0.00     0.046 A 
HETATM    2  C   UNL     1      65.079   8.272   5.426  1.00  0.00     0.164 C 
HETATM    3  C   UNL     1      63.309   8.348   3.705  1.00  0.00     0.082 A 
HETATM    4  C   UNL     1      63.590  10.257   5.184  1.00  0.00     0.060 A 
HETATM    5  O   UNL     1      63.637   7.103   3.235  1.00  0.00    -0.350 OA
HETATM    6  O   UNL     1      65.795   8.832   6.248  1.00  0.00    -0.292 OA
HETATM    7  C   UNL     1      62.207   8.964   3.111  1.00  0.00     0.041 A 
HETATM    8  C   UNL     1      62.494  10.859   4.578  1.00  0.00     0.117 A 
HETATM    9  C   UNL     1      65.200   6.816   5.088  1.00  0.00     0.110 C 
HETATM   10  C   UNL     1      64.959   6.681   3.599  1.00  0.00     0.183 C 
HETATM   11  C   UNL     1      61.798  10.226   3.551  1.00  0.00     0.045 A 
HETATM   12  F   UNL     1      62.087  12.062   5.002  1.00  0.00    -0.206 F 
ENDROOT
TORSDOF 0
ENDMDL
MODEL 4
REMARK VINA RESULT:      -4.9      2.445      3.861
REMARK  0 active torsions:
REMARK  status: ('A' for Active; 'I' for Inactive)
ROOT
HETATM    1  C   UNL     1      62.770   9.252   3.740  1.00  0.00     0.046 A 
HETATM    2  C   UNL     1      62.109  10.534   3.431  1.00  0.00     0.164 C 
HETATM    3  C   UNL     1      62.916   8.312   2.715  1.00  0.00     0.082 A 
HETATM    4  C   UNL     1      63.299   9.016   5.010  1.00  0.00     0.060 A 
HETATM    5  O   UNL     1      62.431   8.485   1.445  1.00  0.00    -0.350 OA
HETATM    6  O   UNL     1      61.829  11.336   4.316  1.00  0.00    -0.292 OA
HETATM    7  C   UNL     1      63.623   7.134   2.953  1.00  0.00     0.041 A 
HETATM    8  C   UNL     1      63.997   7.835   5.232  1.00  0.00     0.117 A 
HETATM    9  C   UNL     1      61.871  10.802   1.975  1.00  0.00     0.110 C 
HETATM   10  C   UNL     1      61.420   9.499   1.348  1.00  0.00     0.183 C 
HETATM   11  C   UNL     1      64.166   6.895   4.218  1.00  0.00     0.045 A 
HETATM   12  F   UNL     1      64.532   7.603   6.438  1.00  0.00    -0.206 F 
ENDROOT
TORSDOF 0
ENDMDL
MODEL 5
REMARK VINA RESULT:      -4.9      2.176      3.115
REMARK  0 active torsions:
REMARK  status: ('A' for Active; 'I' for Inactive)
ROOT
HETATM    1  C   UNL     1      62.577   9.235   3.712  1.00  0.00     0.046 A 
HETATM    2  C   UNL     1      62.980   9.514   5.104  1.00  0.00     0.164 C 
HETATM    3  C   UNL     1      62.160  10.302   2.910  1.00  0.00     0.082 A 
HETATM    4  C   UNL     1      62.678   7.943   3.192  1.00  0.00     0.060 A 
HETATM    5  O   UNL     1      62.050  11.594   3.355  1.00  0.00    -0.350 OA
HETATM    6  O   UNL     1      63.219   8.607   5.892  1.00  0.00    -0.292 OA
HETATM    7  C   UNL     1      61.869  10.082   1.564  1.00  0.00     0.041 A 
HETATM    8  C   UNL     1      62.378   7.741   1.850  1.00  0.00     0.117 A 
HETATM    9  C   UNL     1      63.133  10.966   5.450  1.00  0.00     0.110 C 
HETATM   10  C   UNL     1      61.994  11.708   4.784  1.00  0.00     0.183 C 
HETATM   11  C   UNL     1      61.979   8.796   1.032  1.00  0.00     0.045 A 
HETATM   12  F   UNL     1      62.493   6.513   1.328  1.00  0.00    -0.206 F 
ENDROOT
TORSDOF 0
ENDMDL
MODEL 6
REMARK VINA RESULT:      -4.7      2.837      4.031
REMARK  0 active torsions:
REMARK  status: ('A' for Active; 'I' for Inactive)
ROOT
HETATM    1  C   UNL     1      63.860   8.806   4.640  1.00  0.00     0.046 A 
HETATM    2  C   UNL     1      63.103  10.029   4.967  1.00  0.00     0.164 C 
HETATM    3  C   UNL     1      63.400   7.993   3.599  1.00  0.00     0.082 A 
HETATM    4  C   UNL     1      65.047   8.507   5.312  1.00  0.00     0.060 A 
HETATM    5  O   UNL     1      62.251   8.235   2.892  1.00  0.00    -0.350 OA
HETATM    6  O   UNL     1      63.376  10.703   5.954  1.00  0.00    -0.292 OA
HETATM    7  C   UNL     1      64.150   6.886   3.203  1.00  0.00     0.041 A 
HETATM    8  C   UNL     1      65.779   7.396   4.909  1.00  0.00     0.117 A 
HETATM    9  C   UNL     1      62.039  10.410   3.981  1.00  0.00     0.110 C 
HETATM   10  C   UNL     1      61.347   9.132   3.553  1.00  0.00     0.183 C 
HETATM   11  C   UNL     1      65.345   6.586   3.862  1.00  0.00     0.045 A 
HETATM   12  F   UNL     1      66.932   7.109   5.526  1.00  0.00    -0.206 F 
ENDROOT
TORSDOF 0
ENDMDL
MODEL 7
REMARK VINA RESULT:      -4.6      2.640      4.083
REMARK  0 active torsions:
REMARK  status: ('A' for Active; 'I' for Inactive)
ROOT
HETATM    1  C   UNL     1      64.962   7.554   4.282  1.00  0.00     0.046 A 
HETATM    2  C   UNL     1      66.279   6.893   4.349  1.00  0.00     0.164 C 
HETATM    3  C   UNL     1      64.715   8.639   5.129  1.00  0.00     0.082 A 
HETATM    4  C   UNL     1      64.012   7.147   3.344  1.00  0.00     0.060 A 
HETATM    5  O   UNL     1      65.607   9.097   6.064  1.00  0.00    -0.350 OA
HETATM    6  O   UNL     1      66.504   5.856   3.734  1.00  0.00    -0.292 OA
HETATM    7  C   UNL     1      63.517   9.344   5.018  1.00  0.00     0.041 A 
HETATM    8  C   UNL     1      62.821   7.857   3.250  1.00  0.00     0.117 A 
HETATM    9  C   UNL     1      67.319   7.610   5.158  1.00  0.00     0.110 C 
HETATM   10  C   UNL     1      66.631   8.148   6.395  1.00  0.00     0.183 C 
HETATM   11  C   UNL     1      62.566   8.950   4.074  1.00  0.00     0.045 A 
HETATM   12  F   UNL     1      61.909   7.494   2.338  1.00  0.00    -0.206 F 
ENDROOT
TORSDOF 0
ENDMDL
MODEL 8
REMARK VINA RESULT:      -4.5      1.132      1.183
REMARK  0 active torsions:
REMARK  status: ('A' for Active; 'I' for Inactive)
ROOT
HETATM    1  C   UNL     1      62.229   8.819   3.753  1.00  0.00     0.046 A 
HETATM    2  C   UNL     1      62.440   8.267   5.104  1.00  0.00     0.164 C 
HETATM    3  C   UNL     1      62.030   7.930   2.692  1.00  0.00     0.082 A 
HETATM    4  C   UNL     1      62.160  10.199   3.554  1.00  0.00     0.060 A 
HETATM    5  O   UNL     1      62.073   6.566   2.820  1.00  0.00    -0.350 OA
HETATM    6  O   UNL     1      62.757   8.987   6.045  1.00  0.00    -0.292 OA
HETATM    7  C   UNL     1      61.730   8.425   1.423  1.00  0.00     0.041 A 
HETATM    8  C   UNL     1      61.866  10.675   2.282  1.00  0.00     0.117 A 
HETATM    9  C   UNL     1      62.178   6.797   5.248  1.00  0.00     0.110 C 
HETATM   10  C   UNL     1      62.734   6.121   4.012  1.00  0.00     0.183 C 
HETATM   11  C   UNL     1      61.647   9.804   1.218  1.00  0.00     0.045 A 
HETATM   12  F   UNL     1      61.772  11.996   2.080  1.00  0.00    -0.206 F 
ENDROOT
TORSDOF 0
ENDMDL
MODEL 9
REMARK VINA RESULT:      -4.3      4.882      6.774
REMARK  0 active torsions:
REMARK  status: ('A' for Active; 'I' for Inactive)
ROOT
HETATM    1  C   UNL     1      65.935   6.855   6.723  1.00  0.00     0.046 A 
HETATM    2  C   UNL     1      65.513   7.982   5.870  1.00  0.00     0.164 C 
HETATM    3  C   UNL     1      65.524   5.564   6.375  1.00  0.00     0.082 A 
HETATM    4  C   UNL     1      66.783   7.069   7.811  1.00  0.00     0.060 A 
HETATM    5  O   UNL     1      64.702   5.284   5.315  1.00  0.00    -0.350 OA
HETATM    6  O   UNL     1      65.723   9.144   6.200  1.00  0.00    -0.292 OA
HETATM    7  C   UNL     1      65.989   4.471   7.105  1.00  0.00     0.041 A 
HETATM    8  C   UNL     1      67.233   5.969   8.531  1.00  0.00     0.117 A 
HETATM    9  C   UNL     1      64.878   7.600   4.566  1.00  0.00     0.110 C 
HETATM   10  C   UNL     1      63.968   6.421   4.839  1.00  0.00     0.183 C 
HETATM   11  C   UNL     1      66.848   4.675   8.188  1.00  0.00     0.045 A 
HETATM   12  F   UNL     1      68.067   6.154   9.562  1.00  0.00    -0.206 F 
ENDROOT
TORSDOF 0
ENDMDL
