MODEL 1
REMARK VINA RESULT:      -5.8      0.000      0.000
REMARK  2 active torsions:
REMARK  status: ('A' for Active; 'I' for Inactive)
REMARK    1  A    between atoms: C_1  and  C_4 
REMARK    2  A    between atoms: C_1  and  C_5 
ROOT
HETATM    1  N   UNL     1      67.035   7.261   7.382  1.00  0.00    -0.075 N 
HETATM    2  C   UNL     1      64.923   6.959   5.362  1.00  0.00     0.064 C 
HETATM    3  C   UNL     1      65.794   6.535   7.699  1.00  0.00     0.233 C 
HETATM    4  C   UNL     1      66.776   8.360   6.444  1.00  0.00     0.233 C 
HETATM    5  C   UNL     1      65.227   5.882   6.423  1.00  0.00     0.040 C 
HETATM    6  C   UNL     1      66.191   7.811   5.136  1.00  0.00     0.040 C 
HETATM    7  H   UNL     1      67.702   6.613   6.962  1.00  0.00     0.277 HD
HETATM    8  H   UNL     1      67.412   7.651   8.246  1.00  0.00     0.277 HD
ENDROOT
BRANCH   2   9
HETATM    9  C   UNL     1      63.665   7.747   5.739  1.00  0.00     0.163 C 
HETATM   10  O   UNL     1      63.128   7.537   6.819  1.00  0.00    -0.292 OA
BRANCH   9  11
HETATM   11  C   UNL     1      63.113   8.836   4.863  1.00  0.00     0.010 A 
HETATM   12  C   UNL     1      62.945  10.161   5.331  1.00  0.00     0.015 A 
HETATM   13  C   UNL     1      62.370  11.141   4.514  1.00  0.00     0.001 A 
HETATM   14  C   UNL     1      61.969  10.829   3.217  1.00  0.00     0.000 A 
HETATM   15  C   UNL     1      62.144   9.533   2.729  1.00  0.00     0.001 A 
HETATM   16  C   UNL     1      62.704   8.543   3.544  1.00  0.00     0.015 A 
ENDBRANCH   9  11
ENDBRANCH   2   9
TORSDOF 2
ENDMDL
MODEL 2
REMARK VINA RESULT:      -5.3      0.917      1.891
REMARK  2 active torsions:
REMARK  status: ('A' for Active; 'I' for Inactive)
REMARK    1  A    between atoms: C_1  and  C_4 
REMARK    2  A    between atoms: C_1  and  C_5 
ROOT
HETATM    1  N   UNL     1      66.411   5.558   6.318  1.00  0.00    -0.075 N 
HETATM    2  C   UNL     1      65.503   8.080   5.115  1.00  0.00     0.064 C 
HETATM    3  C   UNL     1      65.472   5.551   5.185  1.00  0.00     0.233 C 
HETATM    4  C   UNL     1      66.187   6.725   7.180  1.00  0.00     0.233 C 
HETATM    5  C   UNL     1      65.710   6.788   4.297  1.00  0.00     0.040 C 
HETATM    6  C   UNL     1      66.387   8.019   6.379  1.00  0.00     0.040 C 
HETATM    7  H   UNL     1      67.366   5.587   5.960  1.00  0.00     0.277 HD
HETATM    8  H   UNL     1      66.262   4.713   6.869  1.00  0.00     0.277 HD
ENDROOT
BRANCH   2   9
HETATM    9  C   UNL     1      64.012   8.322   5.370  1.00  0.00     0.163 C 
HETATM   10  O   UNL     1      63.491   7.847   6.370  1.00  0.00    -0.292 OA
BRANCH   9  11
HETATM   11  C   UNL     1      63.182   9.198   4.475  1.00  0.00     0.010 A 
HETATM   12  C   UNL     1      62.799   8.792   3.174  1.00  0.00     0.015 A 
HETATM   13  C   UNL     1      62.079   9.653   2.339  1.00  0.00     0.001 A 
HETATM   14  C   UNL     1      61.711  10.921   2.785  1.00  0.00     0.000 A 
HETATM   15  C   UNL     1      62.060  11.333   4.071  1.00  0.00     0.001 A 
HETATM   16  C   UNL     1      62.794  10.484   4.908  1.00  0.00     0.015 A 
ENDBRANCH   9  11
ENDBRANCH   2   9
TORSDOF 2
ENDMDL
MODEL 3
REMARK VINA RESULT:      -5.2      1.649      2.361
REMARK  2 active torsions:
REMARK  status: ('A' for Active; 'I' for Inactive)
REMARK    1  A    between atoms: C_1  and  C_4 
REMARK    2  A    between atoms: C_1  and  C_5 
ROOT
HETATM    1  N   UNL     1      65.642   5.528   4.733  1.00  0.00    -0.075 N 
HETATM    2  C   UNL     1      63.899   7.720   5.622  1.00  0.00     0.064 C 
HETATM    3  C   UNL     1      65.409   6.697   3.869  1.00  0.00     0.233 C 
HETATM    4  C   UNL     1      64.449   5.218   5.531  1.00  0.00     0.233 C 
HETATM    5  C   UNL     1      65.139   7.944   4.734  1.00  0.00     0.040 C 
HETATM    6  C   UNL     1      64.087   6.414   6.423  1.00  0.00     0.040 C 
HETATM    7  H   UNL     1      66.421   5.728   5.361  1.00  0.00     0.277 HD
HETATM    8  H   UNL     1      65.856   4.726   4.142  1.00  0.00     0.277 HD
ENDROOT
BRANCH   2   9
HETATM    9  C   UNL     1      62.617   7.796   4.786  1.00  0.00     0.163 C 
HETATM   10  O   UNL     1      61.720   6.989   4.990  1.00  0.00    -0.292 OA
BRANCH   9  11
HETATM   11  C   UNL     1      62.386   8.885   3.777  1.00  0.00     0.010 A 
HETATM   12  C   UNL     1      62.157  10.228   4.164  1.00  0.00     0.015 A 
HETATM   13  C   UNL     1      61.882  11.211   3.207  1.00  0.00     0.001 A 
HETATM   14  C   UNL     1      61.848  10.884   1.853  1.00  0.00     0.000 A 
HETATM   15  C   UNL     1      62.092   9.571   1.448  1.00  0.00     0.001 A 
HETATM   16  C   UNL     1      62.352   8.578   2.400  1.00  0.00     0.015 A 
ENDBRANCH   9  11
ENDBRANCH   2   9
TORSDOF 2
ENDMDL
MODEL 4
REMARK VINA RESULT:      -4.8      1.914      2.858
REMARK  2 active torsions:
REMARK  status: ('A' for Active; 'I' for Inactive)
REMARK    1  A    between atoms: C_1  and  C_4 
REMARK    2  A    between atoms: C_1  and  C_5 
ROOT
HETATM    1  N   UNL     1      63.498   4.604   5.165  1.00  0.00    -0.075 N 
HETATM    2  C   UNL     1      63.796   7.278   6.345  1.00  0.00     0.064 C 
HETATM    3  C   UNL     1      64.833   5.198   5.347  1.00  0.00     0.233 C 
HETATM    4  C   UNL     1      62.499   5.637   4.863  1.00  0.00     0.233 C 
HETATM    5  C   UNL     1      64.824   6.149   6.560  1.00  0.00     0.040 C 
HETATM    6  C   UNL     1      62.424   6.650   6.014  1.00  0.00     0.040 C 
HETATM    7  H   UNL     1      63.229   4.120   6.022  1.00  0.00     0.277 HD
HETATM    8  H   UNL     1      63.538   3.951   4.383  1.00  0.00     0.277 HD
ENDROOT
BRANCH   2   9
HETATM    9  C   UNL     1      64.315   8.292   5.321  1.00  0.00     0.163 C 
HETATM   10  O   UNL     1      65.517   8.358   5.099  1.00  0.00    -0.292 OA
BRANCH   9  11
HETATM   11  C   UNL     1      63.388   9.154   4.511  1.00  0.00     0.010 A 
HETATM   12  C   UNL     1      62.964   8.784   3.212  1.00  0.00     0.015 A 
HETATM   13  C   UNL     1      62.152   9.635   2.456  1.00  0.00     0.001 A 
HETATM   14  C   UNL     1      61.732  10.856   2.979  1.00  0.00     0.000 A 
HETATM   15  C   UNL     1      62.122  11.232   4.264  1.00  0.00     0.001 A 
HETATM   16  C   UNL     1      62.948  10.394   5.023  1.00  0.00     0.015 A 
ENDBRANCH   9  11
ENDBRANCH   2   9
TORSDOF 2
ENDMDL
MODEL 5
REMARK VINA RESULT:      -4.8      1.929      3.027
REMARK  2 active torsions:
REMARK  status: ('A' for Active; 'I' for Inactive)
REMARK    1  A    between atoms: C_1  and  C_4 
REMARK    2  A    between atoms: C_1  and  C_5 
ROOT
HETATM    1  N   UNL     1      66.411   4.392   6.820  1.00  0.00    -0.075 N 
HETATM    2  C   UNL     1      66.439   7.330   6.854  1.00  0.00     0.064 C 
HETATM    3  C   UNL     1      67.545   5.137   6.249  1.00  0.00     0.233 C 
HETATM    4  C   UNL     1      65.152   5.124   6.631  1.00  0.00     0.233 C 
HETATM    5  C   UNL     1      67.718   6.478   6.987  1.00  0.00     0.040 C 
HETATM    6  C   UNL     1      65.229   6.492   7.323  1.00  0.00     0.040 C 
HETATM    7  H   UNL     1      66.571   4.255   7.819  1.00  0.00     0.277 HD
HETATM    8  H   UNL     1      66.339   3.494   6.344  1.00  0.00     0.277 HD
ENDROOT
BRANCH   2   9
HETATM    9  C   UNL     1      66.324   7.911   5.442  1.00  0.00     0.163 C 
HETATM   10  O   UNL     1      67.342   8.213   4.833  1.00  0.00    -0.292 OA
BRANCH   9  11
HETATM   11  C   UNL     1      65.002   8.045   4.739  1.00  0.00     0.010 A 
HETATM   12  C   UNL     1      64.615   7.165   3.700  1.00  0.00     0.015 A 
HETATM   13  C   UNL     1      63.406   7.350   3.020  1.00  0.00     0.001 A 
HETATM   14  C   UNL     1      62.555   8.396   3.369  1.00  0.00     0.000 A 
HETATM   15  C   UNL     1      62.908   9.262   4.404  1.00  0.00     0.001 A 
HETATM   16  C   UNL     1      64.123   9.094   5.080  1.00  0.00     0.015 A 
ENDBRANCH   9  11
ENDBRANCH   2   9
TORSDOF 2
ENDMDL
MODEL 6
REMARK VINA RESULT:      -4.4      2.367      5.064
REMARK  2 active torsions:
REMARK  status: ('A' for Active; 'I' for Inactive)
REMARK    1  A    between atoms: C_1  and  C_4 
REMARK    2  A    between atoms: C_1  and  C_5 
ROOT
HETATM    1  N   UNL     1      61.241   6.486   3.254  1.00  0.00    -0.075 N 
HETATM    2  C   UNL     1      63.421   8.429   3.577  1.00  0.00     0.064 C 
HETATM    3  C   UNL     1      61.016   7.752   3.970  1.00  0.00     0.233 C 
HETATM    4  C   UNL     1      62.610   6.000   3.463  1.00  0.00     0.233 C 
HETATM    5  C   UNL     1      61.946   8.845   3.409  1.00  0.00     0.040 C 
HETATM    6  C   UNL     1      63.621   7.033   2.946  1.00  0.00     0.040 C 
HETATM    7  H   UNL     1      61.089   6.636   2.256  1.00  0.00     0.277 HD
HETATM    8  H   UNL     1      60.589   5.789   3.614  1.00  0.00     0.277 HD
ENDROOT
BRANCH   2   9
HETATM    9  C   UNL     1      63.853   8.553   5.041  1.00  0.00     0.163 C 
HETATM   10  O   UNL     1      63.184   9.233   5.807  1.00  0.00    -0.292 OA
BRANCH   9  11
HETATM   11  C   UNL     1      65.029   7.797   5.593  1.00  0.00     0.010 A 
HETATM   12  C   UNL     1      66.347   8.020   5.130  1.00  0.00     0.015 A 
HETATM   13  C   UNL     1      67.415   7.258   5.616  1.00  0.00     0.001 A 
HETATM   14  C   UNL     1      67.197   6.276   6.581  1.00  0.00     0.000 A 
HETATM   15  C   UNL     1      65.908   6.054   7.066  1.00  0.00     0.001 A 
HETATM   16  C   UNL     1      64.831   6.801   6.574  1.00  0.00     0.015 A 
ENDBRANCH   9  11
ENDBRANCH   2   9
TORSDOF 2
ENDMDL
MODEL 7
REMARK VINA RESULT:      -4.4      3.027      3.874
REMARK  2 active torsions:
REMARK  status: ('A' for Active; 'I' for Inactive)
REMARK    1  A    between atoms: C_1  and  C_4 
REMARK    2  A    between atoms: C_1  and  C_5 
ROOT
HETATM    1  N   UNL     1      61.402   4.637   5.121  1.00  0.00    -0.075 N 
HETATM    2  C   UNL     1      62.720   6.194   3.007  1.00  0.00     0.064 C 
HETATM    3  C   UNL     1      60.850   5.932   4.690  1.00  0.00     0.233 C 
HETATM    4  C   UNL     1      62.867   4.636   5.036  1.00  0.00     0.233 C 
HETATM    5  C   UNL     1      61.191   6.181   3.208  1.00  0.00     0.040 C 
HETATM    6  C   UNL     1      63.312   4.893   3.590  1.00  0.00     0.040 C 
HETATM    7  H   UNL     1      61.032   3.900   4.520  1.00  0.00     0.277 HD
HETATM    8  H   UNL     1      61.131   4.476   6.091  1.00  0.00     0.277 HD
ENDROOT
BRANCH   2   9
HETATM    9  C   UNL     1      63.324   7.490   3.555  1.00  0.00     0.163 C 
HETATM   10  O   UNL     1      64.353   7.440   4.214  1.00  0.00    -0.292 OA
BRANCH   9  11
HETATM   11  C   UNL     1      62.742   8.839   3.237  1.00  0.00     0.010 A 
HETATM   12  C   UNL     1      62.403   9.216   1.915  1.00  0.00     0.015 A 
HETATM   13  C   UNL     1      61.921  10.499   1.638  1.00  0.00     0.001 A 
HETATM   14  C   UNL     1      61.750  11.424   2.667  1.00  0.00     0.000 A 
HETATM   15  C   UNL     1      62.059  11.067   3.980  1.00  0.00     0.001 A 
HETATM   16  C   UNL     1      62.557   9.789   4.264  1.00  0.00     0.015 A 
ENDBRANCH   9  11
ENDBRANCH   2   9
TORSDOF 2
ENDMDL
MODEL 8
REMARK VINA RESULT:      -4.4      2.464      5.190
REMARK  2 active torsions:
REMARK  status: ('A' for Active; 'I' for Inactive)
REMARK    1  A    between atoms: C_1  and  C_4 
REMARK    2  A    between atoms: C_1  and  C_5 
ROOT
HETATM    1  N   UNL     1      62.036   9.309   1.969  1.00  0.00    -0.075 N 
HETATM    2  C   UNL     1      62.512   8.607   4.781  1.00  0.00     0.064 C 
HETATM    3  C   UNL     1      62.879   8.154   2.320  1.00  0.00     0.233 C 
HETATM    4  C   UNL     1      62.172  10.381   2.963  1.00  0.00     0.233 C 
HETATM    5  C   UNL     1      62.413   7.553   3.660  1.00  0.00     0.040 C 
HETATM    6  C   UNL     1      61.743   9.873   4.347  1.00  0.00     0.040 C 
HETATM    7  H   UNL     1      61.061   9.011   1.930  1.00  0.00     0.277 HD
HETATM    8  H   UNL     1      62.337   9.667   1.062  1.00  0.00     0.277 HD
ENDROOT
BRANCH   2   9
HETATM    9  C   UNL     1      63.973   8.833   5.180  1.00  0.00     0.163 C 
HETATM   10  O   UNL     1      64.355   9.967   5.438  1.00  0.00    -0.292 OA
BRANCH   9  11
HETATM   11  C   UNL     1      64.939   7.695   5.350  1.00  0.00     0.010 A 
HETATM   12  C   UNL     1      66.046   7.517   4.486  1.00  0.00     0.015 A 
HETATM   13  C   UNL     1      66.894   6.413   4.628  1.00  0.00     0.001 A 
HETATM   14  C   UNL     1      66.671   5.480   5.638  1.00  0.00     0.000 A 
HETATM   15  C   UNL     1      65.598   5.648   6.514  1.00  0.00     0.001 A 
HETATM   16  C   UNL     1      64.735   6.740   6.370  1.00  0.00     0.015 A 
ENDBRANCH   9  11
ENDBRANCH   2   9
TORSDOF 2
ENDMDL
MODEL 9
REMARK VINA RESULT:      -4.3      3.163      5.531
REMARK  2 active torsions:
REMARK  status: ('A' for Active; 'I' for Inactive)
REMARK    1  A    between atoms: C_1  and  C_4 
REMARK    2  A    between atoms: C_1  and  C_5 
ROOT
HETATM    1  N   UNL     1      60.475   6.640   1.003  1.00  0.00    -0.075 N 
HETATM    2  C   UNL     1      62.474   8.606   1.883  1.00  0.00     0.064 C 
HETATM    3  C   UNL     1      60.066   7.997   1.401  1.00  0.00     0.233 C 
HETATM    4  C   UNL     1      61.630   6.187   1.788  1.00  0.00     0.233 C 
HETATM    5  C   UNL     1      61.201   8.996   1.104  1.00  0.00     0.040 C 
HETATM    6  C   UNL     1      62.819   7.133   1.570  1.00  0.00     0.040 C 
HETATM    7  H   UNL     1      60.725   6.644   0.013  1.00  0.00     0.277 HD
HETATM    8  H   UNL     1      59.696   6.004   1.172  1.00  0.00     0.277 HD
ENDROOT
BRANCH   2   9
HETATM    9  C   UNL     1      62.320   8.940   3.369  1.00  0.00     0.163 C 
HETATM   10  O   UNL     1      61.505   9.786   3.711  1.00  0.00    -0.292 OA
BRANCH   9  11
HETATM   11  C   UNL     1      63.077   8.201   4.436  1.00  0.00     0.010 A 
HETATM   12  C   UNL     1      62.449   7.255   5.281  1.00  0.00     0.015 A 
HETATM   13  C   UNL     1      63.162   6.627   6.308  1.00  0.00     0.001 A 
HETATM   14  C   UNL     1      64.512   6.912   6.502  1.00  0.00     0.000 A 
HETATM   15  C   UNL     1      65.156   7.826   5.667  1.00  0.00     0.001 A 
HETATM   16  C   UNL     1      64.446   8.471   4.647  1.00  0.00     0.015 A 
ENDBRANCH   9  11
ENDBRANCH   2   9
TORSDOF 2
ENDMDL
