MODEL 1
REMARK VINA RESULT:      -5.7      0.000      0.000
REMARK  3 active torsions:
REMARK  status: ('A' for Active; 'I' for Inactive)
REMARK    1  A    between atoms: N_1  and  C_7 
REMARK    2  A    between atoms: C_6  and  C_7 
REMARK    3  A    between atoms: C_6  and  C_8 
ROOT
HETATM    1  N   UNL     1      63.077   7.804   3.783  1.00  0.00    -0.355 N 
HETATM    2  C   UNL     1      62.977   7.080   2.619  1.00  0.00     0.099 A 
HETATM    3  C   UNL     1      62.530   7.919   1.619  1.00  0.00    -0.034 A 
HETATM    4  C   UNL     1      62.621   9.090   3.581  1.00  0.00     0.045 A 
HETATM    5  C   UNL     1      62.327   9.204   2.216  1.00  0.00    -0.002 A 
HETATM    6  C   UNL     1      62.293   7.535   0.204  1.00  0.00     0.050 C 
HETATM    7  C   UNL     1      62.448  10.167   4.467  1.00  0.00     0.030 A 
HETATM    8  C   UNL     1      61.904  10.455   1.719  1.00  0.00     0.014 A 
HETATM    9  C   UNL     1      62.007  11.388   3.948  1.00  0.00     0.002 A 
HETATM   10  C   UNL     1      61.754  11.538   2.589  1.00  0.00     0.001 A 
ENDROOT
BRANCH   1  11
HETATM   11  C   UNL     1      63.613   7.265   5.022  1.00  0.00     0.139 C 
BRANCH  11  12
HETATM   12  C   UNL     1      65.109   6.993   4.930  1.00  0.00     0.133 C 
BRANCH  12  13
HETATM   13  C   UNL     1      65.885   8.201   5.356  1.00  0.00     0.174 C 
HETATM   14  O   UNL     1      65.493   9.120   6.053  1.00  0.00    -0.648 OA
HETATM   15  O   UNL     1      67.146   8.185   4.883  1.00  0.00    -0.648 OA
ENDBRANCH  12  13
ENDBRANCH  11  12
ENDBRANCH   1  11
TORSDOF 3
ENDMDL
MODEL 2
REMARK VINA RESULT:      -5.5      0.930      1.082
REMARK  3 active torsions:
REMARK  status: ('A' for Active; 'I' for Inactive)
REMARK    1  A    between atoms: N_1  and  C_7 
REMARK    2  A    between atoms: C_6  and  C_7 
REMARK    3  A    between atoms: C_6  and  C_8 
ROOT
HETATM    1  N   UNL     1      63.508   7.639   3.681  1.00  0.00    -0.355 N 
HETATM    2  C   UNL     1      63.178   7.165   2.433  1.00  0.00     0.099 A 
HETATM    3  C   UNL     1      62.522   8.166   1.745  1.00  0.00    -0.034 A 
HETATM    4  C   UNL     1      63.004   8.912   3.853  1.00  0.00     0.045 A 
HETATM    5  C   UNL     1      62.431   9.286   2.631  1.00  0.00    -0.002 A 
HETATM    6  C   UNL     1      62.001   8.067   0.358  1.00  0.00     0.050 C 
HETATM    7  C   UNL     1      63.004   9.772   4.963  1.00  0.00     0.030 A 
HETATM    8  C   UNL     1      61.897  10.587   2.506  1.00  0.00     0.014 A 
HETATM    9  C   UNL     1      62.449  11.046   4.815  1.00  0.00     0.002 A 
HETATM   10  C   UNL     1      61.917  11.457   3.599  1.00  0.00     0.001 A 
ENDROOT
BRANCH   1  11
HETATM   11  C   UNL     1      64.297   6.888   4.644  1.00  0.00     0.139 C 
BRANCH  11  12
HETATM   12  C   UNL     1      65.721   7.420   4.758  1.00  0.00     0.133 C 
BRANCH  12  13
HETATM   13  C   UNL     1      66.054   7.715   6.188  1.00  0.00     0.174 C 
HETATM   14  O   UNL     1      66.233   6.908   7.084  1.00  0.00    -0.648 OA
HETATM   15  O   UNL     1      66.158   9.037   6.421  1.00  0.00    -0.648 OA
ENDBRANCH  12  13
ENDBRANCH  11  12
ENDBRANCH   1  11
TORSDOF 3
ENDMDL
MODEL 3
REMARK VINA RESULT:      -5.4      0.704      1.113
REMARK  3 active torsions:
REMARK  status: ('A' for Active; 'I' for Inactive)
REMARK    1  A    between atoms: N_1  and  C_7 
REMARK    2  A    between atoms: C_6  and  C_7 
REMARK    3  A    between atoms: C_6  and  C_8 
ROOT
HETATM    1  N   UNL     1      63.293   7.612   4.124  1.00  0.00    -0.355 N 
HETATM    2  C   UNL     1      63.400   6.613   3.187  1.00  0.00     0.099 A 
HETATM    3  C   UNL     1      63.008   7.117   1.964  1.00  0.00    -0.034 A 
HETATM    4  C   UNL     1      62.756   8.746   3.549  1.00  0.00     0.045 A 
HETATM    5  C   UNL     1      62.623   8.478   2.181  1.00  0.00    -0.002 A 
HETATM    6  C   UNL     1      62.980   6.364   0.683  1.00  0.00     0.050 C 
HETATM    7  C   UNL     1      62.384   9.983   4.100  1.00  0.00     0.030 A 
HETATM    8  C   UNL     1      62.158   9.507   1.334  1.00  0.00     0.014 A 
HETATM    9  C   UNL     1      61.906  10.976   3.238  1.00  0.00     0.002 A 
HETATM   10  C   UNL     1      61.810  10.749   1.871  1.00  0.00     0.001 A 
ENDROOT
BRANCH   1  11
HETATM   11  C   UNL     1      63.718   7.467   5.508  1.00  0.00     0.139 C 
BRANCH  11  12
HETATM   12  C   UNL     1      65.165   7.003   5.618  1.00  0.00     0.133 C 
BRANCH  12  13
HETATM   13  C   UNL     1      66.086   8.182   5.686  1.00  0.00     0.174 C 
HETATM   14  O   UNL     1      67.292   8.185   5.513  1.00  0.00    -0.648 OA
HETATM   15  O   UNL     1      65.427   9.324   5.964  1.00  0.00    -0.648 OA
ENDBRANCH  12  13
ENDBRANCH  11  12
ENDBRANCH   1  11
TORSDOF 3
ENDMDL
MODEL 4
REMARK VINA RESULT:      -5.3      1.046      2.836
REMARK  3 active torsions:
REMARK  status: ('A' for Active; 'I' for Inactive)
REMARK    1  A    between atoms: N_1  and  C_7 
REMARK    2  A    between atoms: C_6  and  C_7 
REMARK    3  A    between atoms: C_6  and  C_8 
ROOT
HETATM    1  N   UNL     1      63.270   8.297   4.533  1.00  0.00    -0.355 N 
HETATM    2  C   UNL     1      63.015   9.549   5.039  1.00  0.00     0.099 A 
HETATM    3  C   UNL     1      62.403  10.301   4.056  1.00  0.00    -0.034 A 
HETATM    4  C   UNL     1      62.909   8.240   3.203  1.00  0.00     0.045 A 
HETATM    5  C   UNL     1      62.308   9.468   2.897  1.00  0.00    -0.002 A 
HETATM    6  C   UNL     1      61.954  11.710   4.195  1.00  0.00     0.050 C 
HETATM    7  C   UNL     1      63.046   7.224   2.243  1.00  0.00     0.030 A 
HETATM    8  C   UNL     1      61.776   9.654   1.602  1.00  0.00     0.014 A 
HETATM    9  C   UNL     1      62.527   7.446   0.963  1.00  0.00     0.002 A 
HETATM   10  C   UNL     1      61.885   8.638   0.650  1.00  0.00     0.001 A 
ENDROOT
BRANCH   1  11
HETATM   11  C   UNL     1      63.820   7.207   5.324  1.00  0.00     0.139 C 
BRANCH  11  12
HETATM   12  C   UNL     1      65.329   7.080   5.156  1.00  0.00     0.133 C 
BRANCH  12  13
HETATM   13  C   UNL     1      66.036   7.735   6.302  1.00  0.00     0.174 C 
HETATM   14  O   UNL     1      66.210   8.929   6.476  1.00  0.00    -0.648 OA
HETATM   15  O   UNL     1      66.489   6.835   7.197  1.00  0.00    -0.648 OA
ENDBRANCH  12  13
ENDBRANCH  11  12
ENDBRANCH   1  11
TORSDOF 3
ENDMDL
MODEL 5
REMARK VINA RESULT:      -4.7      2.529      3.907
REMARK  3 active torsions:
REMARK  status: ('A' for Active; 'I' for Inactive)
REMARK    1  A    between atoms: N_1  and  C_7 
REMARK    2  A    between atoms: C_6  and  C_7 
REMARK    3  A    between atoms: C_6  and  C_8 
ROOT
HETATM    1  N   UNL     1      63.083   7.947   4.315  1.00  0.00    -0.355 N 
HETATM    2  C   UNL     1      62.879   9.180   4.886  1.00  0.00     0.099 A 
HETATM    3  C   UNL     1      62.392  10.035   3.918  1.00  0.00    -0.034 A 
HETATM    4  C   UNL     1      62.815   8.001   2.963  1.00  0.00     0.045 A 
HETATM    5  C   UNL     1      62.323   9.286   2.701  1.00  0.00    -0.002 A 
HETATM    6  C   UNL     1      62.032  11.462   4.121  1.00  0.00     0.050 C 
HETATM    7  C   UNL     1      62.950   7.040   1.947  1.00  0.00     0.030 A 
HETATM    8  C   UNL     1      61.899   9.592   1.389  1.00  0.00     0.014 A 
HETATM    9  C   UNL     1      62.541   7.379   0.654  1.00  0.00     0.002 A 
HETATM   10  C   UNL     1      62.006   8.632   0.380  1.00  0.00     0.001 A 
ENDROOT
BRANCH   1  11
HETATM   11  C   UNL     1      63.498   6.772   5.065  1.00  0.00     0.139 C 
BRANCH  11  12
HETATM   12  C   UNL     1      62.803   6.680   6.418  1.00  0.00     0.133 C 
BRANCH  12  13
HETATM   13  C   UNL     1      61.454   6.048   6.268  1.00  0.00     0.174 C 
HETATM   14  O   UNL     1      61.039   5.414   5.312  1.00  0.00    -0.648 OA
HETATM   15  O   UNL     1      60.682   6.239   7.355  1.00  0.00    -0.648 OA
ENDBRANCH  12  13
ENDBRANCH  11  12
ENDBRANCH   1  11
TORSDOF 3
ENDMDL
MODEL 6
REMARK VINA RESULT:      -4.3      2.689      5.120
REMARK  3 active torsions:
REMARK  status: ('A' for Active; 'I' for Inactive)
REMARK    1  A    between atoms: N_1  and  C_7 
REMARK    2  A    between atoms: C_6  and  C_7 
REMARK    3  A    between atoms: C_6  and  C_8 
ROOT
HETATM    1  N   UNL     1      63.705   7.025   5.608  1.00  0.00    -0.355 N 
HETATM    2  C   UNL     1      63.231   5.755   5.384  1.00  0.00     0.099 A 
HETATM    3  C   UNL     1      64.309   4.902   5.258  1.00  0.00    -0.034 A 
HETATM    4  C   UNL     1      65.083   7.034   5.549  1.00  0.00     0.045 A 
HETATM    5  C   UNL     1      65.488   5.703   5.388  1.00  0.00    -0.002 A 
HETATM    6  C   UNL     1      64.234   3.438   5.014  1.00  0.00     0.050 C 
HETATM    7  C   UNL     1      66.012   8.084   5.630  1.00  0.00     0.030 A 
HETATM    8  C   UNL     1      66.870   5.415   5.369  1.00  0.00     0.014 A 
HETATM    9  C   UNL     1      67.374   7.770   5.587  1.00  0.00     0.002 A 
HETATM   10  C   UNL     1      67.800   6.452   5.475  1.00  0.00     0.001 A 
ENDROOT
BRANCH   1  11
HETATM   11  C   UNL     1      62.848   8.166   5.889  1.00  0.00     0.139 C 
BRANCH  11  12
HETATM   12  C   UNL     1      62.802   9.148   4.725  1.00  0.00     0.133 C 
BRANCH  12  13
HETATM   13  C   UNL     1      63.048  10.543   5.211  1.00  0.00     0.174 C 
HETATM   14  O   UNL     1      63.911  10.910   5.990  1.00  0.00    -0.648 OA
HETATM   15  O   UNL     1      62.186  11.426   4.673  1.00  0.00    -0.648 OA
ENDBRANCH  12  13
ENDBRANCH  11  12
ENDBRANCH   1  11
TORSDOF 3
ENDMDL
MODEL 7
REMARK VINA RESULT:      -4.3      2.639      3.960
REMARK  3 active torsions:
REMARK  status: ('A' for Active; 'I' for Inactive)
REMARK    1  A    between atoms: N_1  and  C_7 
REMARK    2  A    between atoms: C_6  and  C_7 
REMARK    3  A    between atoms: C_6  and  C_8 
ROOT
HETATM    1  N   UNL     1      61.651   7.985   3.609  1.00  0.00    -0.355 N 
HETATM    2  C   UNL     1      61.319   7.116   4.621  1.00  0.00     0.099 A 
HETATM    3  C   UNL     1      60.269   6.329   4.195  1.00  0.00    -0.034 A 
HETATM    4  C   UNL     1      60.778   7.835   2.551  1.00  0.00     0.045 A 
HETATM    5  C   UNL     1      59.938   6.761   2.871  1.00  0.00    -0.002 A 
HETATM    6  C   UNL     1      59.612   5.256   4.984  1.00  0.00     0.050 C 
HETATM    7  C   UNL     1      60.654   8.535   1.340  1.00  0.00     0.030 A 
HETATM    8  C   UNL     1      58.984   6.343   1.918  1.00  0.00     0.014 A 
HETATM    9  C   UNL     1      59.685   8.111   0.424  1.00  0.00     0.002 A 
HETATM   10  C   UNL     1      58.871   7.019   0.701  1.00  0.00     0.001 A 
ENDROOT
BRANCH   1  11
HETATM   11  C   UNL     1      62.782   8.897   3.669  1.00  0.00     0.139 C 
BRANCH  11  12
HETATM   12  C   UNL     1      62.408  10.232   4.302  1.00  0.00     0.133 C 
BRANCH  12  13
HETATM   13  C   UNL     1      63.280  10.509   5.487  1.00  0.00     0.174 C 
HETATM   14  O   UNL     1      63.099  11.345   6.356  1.00  0.00    -0.648 OA
HETATM   15  O   UNL     1      64.353   9.695   5.527  1.00  0.00    -0.648 OA
ENDBRANCH  12  13
ENDBRANCH  11  12
ENDBRANCH   1  11
TORSDOF 3
ENDMDL
MODEL 8
REMARK VINA RESULT:      -4.3      2.771      3.793
REMARK  3 active torsions:
REMARK  status: ('A' for Active; 'I' for Inactive)
REMARK    1  A    between atoms: N_1  and  C_7 
REMARK    2  A    between atoms: C_6  and  C_7 
REMARK    3  A    between atoms: C_6  and  C_8 
ROOT
HETATM    1  N   UNL     1      65.882   6.875   5.438  1.00  0.00    -0.355 N 
HETATM    2  C   UNL     1      66.181   5.751   4.706  1.00  0.00     0.099 A 
HETATM    3  C   UNL     1      65.369   5.728   3.590  1.00  0.00    -0.034 A 
HETATM    4  C   UNL     1      64.826   7.549   4.860  1.00  0.00     0.045 A 
HETATM    5  C   UNL     1      64.525   6.880   3.668  1.00  0.00    -0.002 A 
HETATM    6  C   UNL     1      65.377   4.684   2.533  1.00  0.00     0.050 C 
HETATM    7  C   UNL     1      64.112   8.688   5.270  1.00  0.00     0.030 A 
HETATM    8  C   UNL     1      63.516   7.409   2.833  1.00  0.00     0.014 A 
HETATM    9  C   UNL     1      63.104   9.176   4.432  1.00  0.00     0.002 A 
HETATM   10  C   UNL     1      62.820   8.556   3.221  1.00  0.00     0.001 A 
ENDROOT
BRANCH   1  11
HETATM   11  C   UNL     1      66.612   7.278   6.630  1.00  0.00     0.139 C 
BRANCH  11  12
HETATM   12  C   UNL     1      65.978   6.730   7.903  1.00  0.00     0.133 C 
BRANCH  12  13
HETATM   13  C   UNL     1      66.921   5.794   8.593  1.00  0.00     0.174 C 
HETATM   14  O   UNL     1      68.015   6.061   9.058  1.00  0.00    -0.648 OA
HETATM   15  O   UNL     1      66.423   4.545   8.675  1.00  0.00    -0.648 OA
ENDBRANCH  12  13
ENDBRANCH  11  12
ENDBRANCH   1  11
TORSDOF 3
ENDMDL
MODEL 9
REMARK VINA RESULT:      -4.2      3.649      4.907
REMARK  3 active torsions:
REMARK  status: ('A' for Active; 'I' for Inactive)
REMARK    1  A    between atoms: N_1  and  C_7 
REMARK    2  A    between atoms: C_6  and  C_7 
REMARK    3  A    between atoms: C_6  and  C_8 
ROOT
HETATM    1  N   UNL     1      61.109   7.392   4.099  1.00  0.00    -0.355 N 
HETATM    2  C   UNL     1      60.121   7.635   3.174  1.00  0.00     0.099 A 
HETATM    3  C   UNL     1      58.936   7.113   3.653  1.00  0.00    -0.034 A 
HETATM    4  C   UNL     1      60.606   6.643   5.143  1.00  0.00     0.045 A 
HETATM    5  C   UNL     1      59.231   6.505   4.915  1.00  0.00    -0.002 A 
HETATM    6  C   UNL     1      57.622   7.167   2.962  1.00  0.00     0.050 C 
HETATM    7  C   UNL     1      61.228   6.082   6.271  1.00  0.00     0.030 A 
HETATM    8  C   UNL     1      58.450   5.834   5.880  1.00  0.00     0.014 A 
HETATM    9  C   UNL     1      60.431   5.405   7.199  1.00  0.00     0.002 A 
HETATM   10  C   UNL     1      59.058   5.296   7.017  1.00  0.00     0.001 A 
ENDROOT
BRANCH   1  11
HETATM   11  C   UNL     1      62.469   7.889   3.973  1.00  0.00     0.139 C 
BRANCH  11  12
HETATM   12  C   UNL     1      62.509   9.337   3.500  1.00  0.00     0.133 C 
BRANCH  12  13
HETATM   13  C   UNL     1      62.544  10.267   4.673  1.00  0.00     0.174 C 
HETATM   14  O   UNL     1      63.015  10.045   5.775  1.00  0.00    -0.648 OA
HETATM   15  O   UNL     1      61.984  11.459   4.390  1.00  0.00    -0.648 OA
ENDBRANCH  12  13
ENDBRANCH  11  12
ENDBRANCH   1  11
TORSDOF 3
ENDMDL
