MODEL 1
REMARK VINA RESULT:      -4.8      0.000      0.000
REMARK  1 active torsions:
REMARK  status: ('A' for Active; 'I' for Inactive)
REMARK    1  A    between atoms: C_9  and  O_11 
ROOT
HETATM    1  C   UNL     1      62.313   9.524   2.931  1.00  0.00     0.045 A 
HETATM    2  C   UNL     1      63.099   8.870   3.859  1.00  0.00     0.086 A 
HETATM    3  O   UNL     1      63.495   7.604   3.512  1.00  0.00    -0.343 OA
HETATM    4  C   UNL     1      62.155   8.605   1.837  1.00  0.00     0.186 A 
HETATM    5  C   UNL     1      63.440   9.487   5.045  1.00  0.00     0.074 A 
HETATM    6  C   UNL     1      61.828  10.805   3.120  1.00  0.00     0.021 A 
HETATM    7  C   UNL     1      62.915   7.357   2.206  1.00  0.00     0.259 A 
HETATM    8  O   UNL     1      61.521   8.828   0.823  1.00  0.00    -0.290 OA
HETATM    9  C   UNL     1      62.962  10.780   5.264  1.00  0.00     0.068 A 
HETATM   10  C   UNL     1      62.164  11.443   4.317  1.00  0.00     0.037 A 
ENDROOT
BRANCH   9  11
HETATM   11  O   UNL     1      63.303  11.381   6.441  1.00  0.00    -0.361 OA
HETATM   12  H   UNL     1      63.318  12.317   6.502  1.00  0.00     0.217 HD
ENDBRANCH   9  11
TORSDOF 1
ENDMDL
MODEL 2
REMARK VINA RESULT:      -4.8      2.181      3.522
REMARK  1 active torsions:
REMARK  status: ('A' for Active; 'I' for Inactive)
REMARK    1  A    between atoms: C_9  and  O_11 
ROOT
HETATM    1  C   UNL     1      64.239   7.983   4.186  1.00  0.00     0.045 A 
HETATM    2  C   UNL     1      64.169   9.070   5.032  1.00  0.00     0.086 A 
HETATM    3  O   UNL     1      65.170   9.162   5.964  1.00  0.00    -0.343 OA
HETATM    4  C   UNL     1      65.412   7.253   4.585  1.00  0.00     0.186 A 
HETATM    5  C   UNL     1      63.140   9.982   4.913  1.00  0.00     0.074 A 
HETATM    6  C   UNL     1      63.313   7.738   3.189  1.00  0.00     0.021 A 
HETATM    7  C   UNL     1      66.020   8.009   5.739  1.00  0.00     0.259 A 
HETATM    8  O   UNL     1      65.807   6.226   4.067  1.00  0.00    -0.290 OA
HETATM    9  C   UNL     1      62.188   9.760   3.917  1.00  0.00     0.068 A 
HETATM   10  C   UNL     1      62.264   8.652   3.056  1.00  0.00     0.037 A 
ENDROOT
BRANCH   9  11
HETATM   11  O   UNL     1      61.174  10.667   3.809  1.00  0.00    -0.361 OA
HETATM   12  H   UNL     1      61.132  11.396   4.396  1.00  0.00     0.217 HD
ENDBRANCH   9  11
TORSDOF 1
ENDMDL
MODEL 3
REMARK VINA RESULT:      -4.7      1.456      3.843
REMARK  1 active torsions:
REMARK  status: ('A' for Active; 'I' for Inactive)
REMARK    1  A    between atoms: C_9  and  O_11 
ROOT
HETATM    1  C   UNL     1      62.270   9.956   3.020  1.00  0.00     0.045 A 
HETATM    2  C   UNL     1      62.823   8.802   3.539  1.00  0.00     0.086 A 
HETATM    3  O   UNL     1      63.213   8.870   4.851  1.00  0.00    -0.343 OA
HETATM    4  C   UNL     1      62.287  10.913   4.093  1.00  0.00     0.186 A 
HETATM    5  C   UNL     1      62.955   7.677   2.752  1.00  0.00     0.074 A 
HETATM    6  C   UNL     1      61.824  10.061   1.716  1.00  0.00     0.021 A 
HETATM    7  C   UNL     1      62.899  10.218   5.283  1.00  0.00     0.259 A 
HETATM    8  O   UNL     1      61.878  12.056   4.018  1.00  0.00    -0.290 OA
HETATM    9  C   UNL     1      62.515   7.754   1.429  1.00  0.00     0.068 A 
HETATM   10  C   UNL     1      61.952   8.930   0.906  1.00  0.00     0.037 A 
ENDROOT
BRANCH   9  11
HETATM   11  O   UNL     1      62.653   6.636   0.658  1.00  0.00    -0.361 OA
HETATM   12  H   UNL     1      63.160   6.670  -0.130  1.00  0.00     0.217 HD
ENDBRANCH   9  11
TORSDOF 1
ENDMDL
MODEL 4
REMARK VINA RESULT:      -4.7      1.685      3.190
REMARK  1 active torsions:
REMARK  status: ('A' for Active; 'I' for Inactive)
REMARK    1  A    between atoms: C_9  and  O_11 
ROOT
HETATM    1  C   UNL     1      63.574   8.979   4.790  1.00  0.00     0.045 A 
HETATM    2  C   UNL     1      63.167   8.573   3.536  1.00  0.00     0.086 A 
HETATM    3  O   UNL     1      63.626   7.346   3.132  1.00  0.00    -0.343 OA
HETATM    4  C   UNL     1      64.401   7.917   5.295  1.00  0.00     0.186 A 
HETATM    5  C   UNL     1      62.351   9.381   2.771  1.00  0.00     0.074 A 
HETATM    6  C   UNL     1      63.203  10.187   5.352  1.00  0.00     0.021 A 
HETATM    7  C   UNL     1      64.442   6.855   4.226  1.00  0.00     0.259 A 
HETATM    8  O   UNL     1      64.946   7.911   6.383  1.00  0.00    -0.290 OA
HETATM    9  C   UNL     1      61.962  10.608   3.311  1.00  0.00     0.068 A 
HETATM   10  C   UNL     1      62.377  11.017   4.589  1.00  0.00     0.037 A 
ENDROOT
BRANCH   9  11
HETATM   11  O   UNL     1      61.157  11.401   2.545  1.00  0.00    -0.361 OA
HETATM   12  H   UNL     1      60.238  11.222   2.491  1.00  0.00     0.217 HD
ENDBRANCH   9  11
TORSDOF 1
ENDMDL
MODEL 5
REMARK VINA RESULT:      -4.7      1.150      2.380
REMARK  1 active torsions:
REMARK  status: ('A' for Active; 'I' for Inactive)
REMARK    1  A    between atoms: C_9  and  O_11 
ROOT
HETATM    1  C   UNL     1      62.671   8.583   2.855  1.00  0.00     0.045 A 
HETATM    2  C   UNL     1      62.102   9.597   2.110  1.00  0.00     0.086 A 
HETATM    3  O   UNL     1      61.815   9.286   0.806  1.00  0.00    -0.343 OA
HETATM    4  C   UNL     1      62.786   7.462   1.962  1.00  0.00     0.186 A 
HETATM    5  C   UNL     1      61.855  10.829   2.681  1.00  0.00     0.074 A 
HETATM    6  C   UNL     1      63.022   8.726   4.184  1.00  0.00     0.021 A 
HETATM    7  C   UNL     1      62.236   7.909   0.632  1.00  0.00     0.259 A 
HETATM    8  O   UNL     1      63.245   6.375   2.260  1.00  0.00    -0.290 OA
HETATM    9  C   UNL     1      62.202  11.003   4.022  1.00  0.00     0.068 A 
HETATM   10  C   UNL     1      62.780   9.969   4.777  1.00  0.00     0.037 A 
ENDROOT
BRANCH   9  11
HETATM   11  O   UNL     1      61.956  12.226   4.577  1.00  0.00    -0.361 OA
HETATM   12  H   UNL     1      62.618  12.890   4.559  1.00  0.00     0.217 HD
ENDBRANCH   9  11
TORSDOF 1
ENDMDL
MODEL 6
REMARK VINA RESULT:      -4.6      1.679      2.768
REMARK  1 active torsions:
REMARK  status: ('A' for Active; 'I' for Inactive)
REMARK    1  A    between atoms: C_9  and  O_11 
ROOT
HETATM    1  C   UNL     1      62.440   9.144   2.971  1.00  0.00     0.045 A 
HETATM    2  C   UNL     1      62.342  10.023   4.031  1.00  0.00     0.086 A 
HETATM    3  O   UNL     1      61.960  11.300   3.709  1.00  0.00    -0.343 OA
HETATM    4  C   UNL     1      62.090   9.904   1.801  1.00  0.00     0.186 A 
HETATM    5  C   UNL     1      62.619   9.601   5.315  1.00  0.00     0.074 A 
HETATM    6  C   UNL     1      62.811   7.821   3.117  1.00  0.00     0.021 A 
HETATM    7  C   UNL     1      61.780  11.302   2.270  1.00  0.00     0.259 A 
HETATM    8  O   UNL     1      62.061   9.467   0.666  1.00  0.00    -0.290 OA
HETATM    9  C   UNL     1      62.998   8.270   5.494  1.00  0.00     0.068 A 
HETATM   10  C   UNL     1      63.096   7.378   4.412  1.00  0.00     0.037 A 
ENDROOT
BRANCH   9  11
HETATM   11  O   UNL     1      63.273   7.864   6.767  1.00  0.00    -0.361 OA
HETATM   12  H   UNL     1      62.743   8.165   7.480  1.00  0.00     0.217 HD
ENDBRANCH   9  11
TORSDOF 1
ENDMDL
MODEL 7
REMARK VINA RESULT:      -4.6      1.595      3.096
REMARK  1 active torsions:
REMARK  status: ('A' for Active; 'I' for Inactive)
REMARK    1  A    between atoms: C_9  and  O_11 
ROOT
HETATM    1  C   UNL     1      62.730   8.486   3.495  1.00  0.00     0.045 A 
HETATM    2  C   UNL     1      62.607   9.572   4.338  1.00  0.00     0.086 A 
HETATM    3  O   UNL     1      62.946   9.347   5.647  1.00  0.00    -0.343 OA
HETATM    4  C   UNL     1      63.202   7.405   4.318  1.00  0.00     0.186 A 
HETATM    5  C   UNL     1      62.167  10.786   3.853  1.00  0.00     0.074 A 
HETATM    6  C   UNL     1      62.431   8.537   2.146  1.00  0.00     0.021 A 
HETATM    7  C   UNL     1      63.342   7.953   5.714  1.00  0.00     0.259 A 
HETATM    8  O   UNL     1      63.432   6.277   3.925  1.00  0.00    -0.290 OA
HETATM    9  C   UNL     1      61.855  10.868   2.495  1.00  0.00     0.068 A 
HETATM   10  C   UNL     1      61.983   9.761   1.639  1.00  0.00     0.037 A 
ENDROOT
BRANCH   9  11
HETATM   11  O   UNL     1      61.418  12.072   2.025  1.00  0.00    -0.361 OA
HETATM   12  H   UNL     1      61.996  12.810   2.016  1.00  0.00     0.217 HD
ENDBRANCH   9  11
TORSDOF 1
ENDMDL
MODEL 8
REMARK VINA RESULT:      -4.5      1.726      3.595
REMARK  1 active torsions:
REMARK  status: ('A' for Active; 'I' for Inactive)
REMARK    1  A    between atoms: C_9  and  O_11 
ROOT
HETATM    1  C   UNL     1      63.838   8.844   4.544  1.00  0.00     0.045 A 
HETATM    2  C   UNL     1      63.628   7.896   3.563  1.00  0.00     0.086 A 
HETATM    3  O   UNL     1      64.555   6.888   3.505  1.00  0.00    -0.343 OA
HETATM    4  C   UNL     1      65.038   8.440   5.226  1.00  0.00     0.186 A 
HETATM    5  C   UNL     1      62.542   7.996   2.718  1.00  0.00     0.074 A 
HETATM    6  C   UNL     1      63.002   9.927   4.743  1.00  0.00     0.021 A 
HETATM    7  C   UNL     1      65.510   7.174   4.558  1.00  0.00     0.259 A 
HETATM    8  O   UNL     1      65.545   9.032   6.160  1.00  0.00    -0.290 OA
HETATM    9  C   UNL     1      61.681   9.080   2.893  1.00  0.00     0.068 A 
HETATM   10  C   UNL     1      61.898  10.043   3.893  1.00  0.00     0.037 A 
ENDROOT
BRANCH   9  11
HETATM   11  O   UNL     1      60.611   9.172   2.050  1.00  0.00    -0.361 OA
HETATM   12  H   UNL     1      59.837   9.625   2.322  1.00  0.00     0.217 HD
ENDBRANCH   9  11
TORSDOF 1
ENDMDL
MODEL 9
REMARK VINA RESULT:      -4.2      2.538      4.235
REMARK  1 active torsions:
REMARK  status: ('A' for Active; 'I' for Inactive)
REMARK    1  A    between atoms: C_9  and  O_11 
ROOT
HETATM    1  C   UNL     1      63.930   8.022   4.157  1.00  0.00     0.045 A 
HETATM    2  C   UNL     1      64.891   8.555   4.993  1.00  0.00     0.086 A 
HETATM    3  O   UNL     1      64.520   9.681   5.681  1.00  0.00    -0.343 OA
HETATM    4  C   UNL     1      62.782   8.879   4.287  1.00  0.00     0.186 A 
HETATM    5  C   UNL     1      66.131   7.959   5.099  1.00  0.00     0.074 A 
HETATM    6  C   UNL     1      64.136   6.890   3.391  1.00  0.00     0.021 A 
HETATM    7  C   UNL     1      63.156   9.958   5.271  1.00  0.00     0.259 A 
HETATM    8  O   UNL     1      61.727   8.730   3.700  1.00  0.00    -0.290 OA
HETATM    9  C   UNL     1      66.369   6.815   4.336  1.00  0.00     0.068 A 
HETATM   10  C   UNL     1      65.388   6.276   3.487  1.00  0.00     0.037 A 
ENDROOT
BRANCH   9  11
HETATM   11  O   UNL     1      67.599   6.235   4.445  1.00  0.00    -0.361 OA
HETATM   12  H   UNL     1      67.916   5.675   3.763  1.00  0.00     0.217 HD
ENDBRANCH   9  11
TORSDOF 1
ENDMDL
