MODEL 1
REMARK VINA RESULT:      -4.7      0.000      0.000
REMARK  1 active torsions:
REMARK  status: ('A' for Active; 'I' for Inactive)
REMARK    1  A    between atoms: C_3  and  C_9 
ROOT
HETATM    1  N   UNL     1      61.607  10.480   3.136  1.00  0.00    -0.375 N 
ATOM      2  HN  UNL     1      60.903  10.990   2.603  1.00  0.00     0.164 HD
HETATM    3  C   UNL     1      63.548   9.071   4.605  1.00  0.00     0.002 A 
HETATM    4  C   UNL     1      62.112   9.306   2.701  1.00  0.00     0.088 A 
HETATM    5  C   UNL     1      62.081  10.943   4.310  1.00  0.00     0.088 A 
HETATM    6  C   UNL     1      63.036  10.286   5.069  1.00  0.00     0.031 A 
HETATM    7  C   UNL     1      63.069   8.577   3.388  1.00  0.00     0.031 A 
ENDROOT
BRANCH   3   8
HETATM    8  C   UNL     1      64.546   8.344   5.377  1.00  0.00     0.102 A 
HETATM    9  C   UNL     1      64.699   7.047   5.823  1.00  0.00     0.127 A 
HETATM   10  N   UNL     1      65.870   6.916   6.527  1.00  0.00    -0.354 N 
HETATM   11  C   UNL     1      66.383   8.125   6.485  1.00  0.00     0.233 A 
ATOM     12  HN  UNL     1      66.251   6.083   6.974  1.00  0.00     0.166 HD
HETATM   13  O   UNL     1      65.644   9.045   5.809  1.00  0.00    -0.304 OA
ENDBRANCH   3   8
TORSDOF 1
ENDMDL
MODEL 2
REMARK VINA RESULT:      -4.7      0.461      1.488
REMARK  1 active torsions:
REMARK  status: ('A' for Active; 'I' for Inactive)
REMARK    1  A    between atoms: C_3  and  C_9 
ROOT
HETATM    1  N   UNL     1      61.587  10.822   2.933  1.00  0.00    -0.375 N 
ATOM      2  HN  UNL     1      60.979  11.379   2.333  1.00  0.00     0.164 HD
HETATM    3  C   UNL     1      63.267   9.287   4.587  1.00  0.00     0.002 A 
HETATM    4  C   UNL     1      61.998  11.270   4.138  1.00  0.00     0.088 A 
HETATM    5  C   UNL     1      62.023   9.601   2.562  1.00  0.00     0.088 A 
HETATM    6  C   UNL     1      62.851   8.808   3.341  1.00  0.00     0.031 A 
HETATM    7  C   UNL     1      62.823  10.550   4.987  1.00  0.00     0.031 A 
ENDROOT
BRANCH   3   8
HETATM    8  C   UNL     1      64.144   8.489   5.432  1.00  0.00     0.102 A 
HETATM    9  C   UNL     1      64.030   7.311   6.142  1.00  0.00     0.127 A 
HETATM   10  N   UNL     1      65.211   7.017   6.777  1.00  0.00    -0.354 N 
HETATM   11  C   UNL     1      65.993   8.016   6.436  1.00  0.00     0.233 A 
ATOM     12  HN  UNL     1      65.428   6.217   7.370  1.00  0.00     0.166 HD
HETATM   13  O   UNL     1      65.424   8.946   5.624  1.00  0.00    -0.304 OA
ENDBRANCH   3   8
TORSDOF 1
ENDMDL
MODEL 3
REMARK VINA RESULT:      -4.2      1.488      4.933
REMARK  1 active torsions:
REMARK  status: ('A' for Active; 'I' for Inactive)
REMARK    1  A    between atoms: C_3  and  C_9 
ROOT
HETATM    1  N   UNL     1      68.036   6.565   6.689  1.00  0.00    -0.375 N 
ATOM      2  HN  UNL     1      68.855   6.066   7.034  1.00  0.00     0.164 HD
HETATM    3  C   UNL     1      65.774   7.941   5.737  1.00  0.00     0.002 A 
HETATM    4  C   UNL     1      66.858   6.533   7.346  1.00  0.00     0.088 A 
HETATM    5  C   UNL     1      68.075   7.291   5.553  1.00  0.00     0.088 A 
HETATM    6  C   UNL     1      66.988   7.985   5.044  1.00  0.00     0.031 A 
HETATM    7  C   UNL     1      65.718   7.194   6.917  1.00  0.00     0.031 A 
ENDROOT
BRANCH   3   8
HETATM    8  C   UNL     1      64.607   8.648   5.231  1.00  0.00     0.102 A 
HETATM    9  C   UNL     1      63.632   8.399   4.286  1.00  0.00     0.127 A 
HETATM   10  N   UNL     1      62.746   9.446   4.224  1.00  0.00    -0.354 N 
HETATM   11  C   UNL     1      63.208  10.286   5.121  1.00  0.00     0.233 A 
ATOM     12  HN  UNL     1      61.927   9.547   3.625  1.00  0.00     0.166 HD
HETATM   13  O   UNL     1      64.329   9.878   5.774  1.00  0.00    -0.304 OA
ENDBRANCH   3   8
TORSDOF 1
ENDMDL
MODEL 4
REMARK VINA RESULT:      -4.1      2.857      3.879
REMARK  1 active torsions:
REMARK  status: ('A' for Active; 'I' for Inactive)
REMARK    1  A    between atoms: C_3  and  C_9 
ROOT
HETATM    1  N   UNL     1      60.517   7.275   1.090  1.00  0.00    -0.375 N 
ATOM      2  HN  UNL     1      60.115   6.668   0.376  1.00  0.00     0.164 HD
HETATM    3  C   UNL     1      61.622   8.953   3.059  1.00  0.00     0.002 A 
HETATM    4  C   UNL     1      60.152   7.184   2.386  1.00  0.00     0.088 A 
HETATM    5  C   UNL     1      61.439   8.211   0.787  1.00  0.00     0.088 A 
HETATM    6  C   UNL     1      62.012   9.060   1.721  1.00  0.00     0.031 A 
HETATM    7  C   UNL     1      60.668   7.986   3.390  1.00  0.00     0.031 A 
ENDROOT
BRANCH   3   8
HETATM    8  C   UNL     1      62.193   9.831   4.070  1.00  0.00     0.102 A 
HETATM    9  C   UNL     1      63.114   9.698   5.090  1.00  0.00     0.127 A 
HETATM   10  N   UNL     1      63.277  10.892   5.747  1.00  0.00    -0.354 N 
HETATM   11  C   UNL     1      62.459  11.700   5.112  1.00  0.00     0.233 A 
ATOM     12  HN  UNL     1      63.886  11.102   6.537  1.00  0.00     0.166 HD
HETATM   13  O   UNL     1      61.768  11.136   4.086  1.00  0.00    -0.304 OA
ENDBRANCH   3   8
TORSDOF 1
ENDMDL
MODEL 5
REMARK VINA RESULT:      -4.0      1.693      4.727
REMARK  1 active torsions:
REMARK  status: ('A' for Active; 'I' for Inactive)
REMARK    1  A    between atoms: C_3  and  C_9 
ROOT
HETATM    1  N   UNL     1      64.956   6.668   6.263  1.00  0.00    -0.375 N 
ATOM      2  HN  UNL     1      65.482   6.040   6.869  1.00  0.00     0.164 HD
HETATM    3  C   UNL     1      63.503   8.403   4.592  1.00  0.00     0.002 A 
HETATM    4  C   UNL     1      65.431   7.883   5.917  1.00  0.00     0.088 A 
HETATM    5  C   UNL     1      63.750   6.328   5.766  1.00  0.00     0.088 A 
HETATM    6  C   UNL     1      62.997   7.147   4.940  1.00  0.00     0.031 A 
HETATM    7  C   UNL     1      64.754   8.770   5.097  1.00  0.00     0.031 A 
ENDROOT
BRANCH   3   8
HETATM    8  C   UNL     1      62.740   9.298   3.733  1.00  0.00     0.102 A 
HETATM    9  C   UNL     1      62.073  10.495   3.898  1.00  0.00     0.127 A 
HETATM   10  N   UNL     1      61.515  10.900   2.711  1.00  0.00    -0.354 N 
HETATM   11  C   UNL     1      61.859   9.947   1.876  1.00  0.00     0.233 A 
ATOM     12  HN  UNL     1      60.967  11.740   2.522  1.00  0.00     0.166 HD
HETATM   13  O   UNL     1      62.600   8.943   2.415  1.00  0.00    -0.304 OA
ENDBRANCH   3   8
TORSDOF 1
ENDMDL
MODEL 6
REMARK VINA RESULT:      -3.8      1.256      4.490
REMARK  1 active torsions:
REMARK  status: ('A' for Active; 'I' for Inactive)
REMARK    1  A    between atoms: C_3  and  C_9 
ROOT
HETATM    1  N   UNL     1      65.487   6.249   6.284  1.00  0.00    -0.375 N 
ATOM      2  HN  UNL     1      66.093   5.563   6.734  1.00  0.00     0.164 HD
HETATM    3  C   UNL     1      63.816   8.141   5.043  1.00  0.00     0.002 A 
HETATM    4  C   UNL     1      64.175   6.011   6.081  1.00  0.00     0.088 A 
HETATM    5  C   UNL     1      65.957   7.441   5.863  1.00  0.00     0.088 A 
HETATM    6  C   UNL     1      65.174   8.404   5.247  1.00  0.00     0.031 A 
HETATM    7  C   UNL     1      63.313   6.911   5.476  1.00  0.00     0.031 A 
ENDROOT
BRANCH   3   8
HETATM    8  C   UNL     1      62.961   9.123   4.391  1.00  0.00     0.102 A 
HETATM    9  C   UNL     1      62.077   9.116   3.331  1.00  0.00     0.127 A 
HETATM   10  N   UNL     1      61.532  10.362   3.153  1.00  0.00    -0.354 N 
HETATM   11  C   UNL     1      62.096  11.076   4.100  1.00  0.00     0.233 A 
ATOM     12  HN  UNL     1      60.851  10.662   2.455  1.00  0.00     0.166 HD
HETATM   13  O   UNL     1      62.972  10.401   4.891  1.00  0.00    -0.304 OA
ENDBRANCH   3   8
TORSDOF 1
ENDMDL
MODEL 7
REMARK VINA RESULT:      -3.7     10.188     11.484
REMARK  1 active torsions:
REMARK  status: ('A' for Active; 'I' for Inactive)
REMARK    1  A    between atoms: C_3  and  C_9 
ROOT
HETATM    1  N   UNL     1      57.414   1.642  14.513  1.00  0.00    -0.375 N 
ATOM      2  HN  UNL     1      57.153   1.353  15.456  1.00  0.00     0.164 HD
HETATM    3  C   UNL     1      58.134   2.436  11.912  1.00  0.00     0.002 A 
HETATM    4  C   UNL     1      56.500   2.102  13.634  1.00  0.00     0.088 A 
HETATM    5  C   UNL     1      58.690   1.583  14.083  1.00  0.00     0.088 A 
HETATM    6  C   UNL     1      59.094   1.963  12.812  1.00  0.00     0.031 A 
HETATM    7  C   UNL     1      56.806   2.505  12.344  1.00  0.00     0.031 A 
ENDROOT
BRANCH   3   8
HETATM    8  C   UNL     1      58.514   2.836  10.565  1.00  0.00     0.102 A 
HETATM    9  C   UNL     1      58.985   2.193   9.438  1.00  0.00     0.127 A 
HETATM   10  N   UNL     1      59.177   3.091   8.419  1.00  0.00    -0.354 N 
HETATM   11  C   UNL     1      58.821   4.236   8.954  1.00  0.00     0.233 A 
ATOM     12  HN  UNL     1      59.514   2.913   7.473  1.00  0.00     0.166 HD
HETATM   13  O   UNL     1      58.408   4.167  10.248  1.00  0.00    -0.304 OA
ENDBRANCH   3   8
TORSDOF 1
ENDMDL
MODEL 8
REMARK VINA RESULT:      -3.7      2.296      3.074
REMARK  1 active torsions:
REMARK  status: ('A' for Active; 'I' for Inactive)
REMARK    1  A    between atoms: C_3  and  C_9 
ROOT
HETATM    1  N   UNL     1      62.922   8.401   4.449  1.00  0.00    -0.375 N 
ATOM      2  HN  UNL     1      62.364   8.927   3.777  1.00  0.00     0.164 HD
HETATM    3  C   UNL     1      64.458   6.951   6.307  1.00  0.00     0.002 A 
HETATM    4  C   UNL     1      62.376   7.440   5.224  1.00  0.00     0.088 A 
HETATM    5  C   UNL     1      64.241   8.631   4.610  1.00  0.00     0.088 A 
HETATM    6  C   UNL     1      65.039   7.943   5.511  1.00  0.00     0.031 A 
HETATM    7  C   UNL     1      63.091   6.700   6.151  1.00  0.00     0.031 A 
ENDROOT
BRANCH   3   8
HETATM    8  C   UNL     1      65.259   6.212   7.272  1.00  0.00     0.102 A 
HETATM    9  C   UNL     1      65.549   4.883   7.505  1.00  0.00     0.127 A 
HETATM   10  N   UNL     1      66.388   4.757   8.584  1.00  0.00    -0.354 N 
HETATM   11  C   UNL     1      66.577   5.999   8.965  1.00  0.00     0.233 A 
ATOM     12  HN  UNL     1      66.773   3.905   8.991  1.00  0.00     0.166 HD
HETATM   13  O   UNL     1      65.930   6.938   8.224  1.00  0.00    -0.304 OA
ENDBRANCH   3   8
TORSDOF 1
ENDMDL
MODEL 9
REMARK VINA RESULT:      -3.7      2.645      6.076
REMARK  1 active torsions:
REMARK  status: ('A' for Active; 'I' for Inactive)
REMARK    1  A    between atoms: C_3  and  C_9 
ROOT
HETATM    1  N   UNL     1      67.960   4.788   8.999  1.00  0.00    -0.375 N 
ATOM      2  HN  UNL     1      68.624   4.263   9.567  1.00  0.00     0.164 HD
HETATM    3  C   UNL     1      66.125   6.236   7.433  1.00  0.00     0.002 A 
HETATM    4  C   UNL     1      67.757   6.109   9.184  1.00  0.00     0.088 A 
HETATM    5  C   UNL     1      67.239   4.197   8.024  1.00  0.00     0.088 A 
HETATM    6  C   UNL     1      66.324   4.867   7.227  1.00  0.00     0.031 A 
HETATM    7  C   UNL     1      66.866   6.864   8.439  1.00  0.00     0.031 A 
ENDROOT
BRANCH   3   8
HETATM    8  C   UNL     1      65.167   6.975   6.624  1.00  0.00     0.102 A 
HETATM    9  C   UNL     1      63.857   6.793   6.229  1.00  0.00     0.127 A 
HETATM   10  N   UNL     1      63.441   7.841   5.447  1.00  0.00    -0.354 N 
HETATM   11  C   UNL     1      64.500   8.616   5.394  1.00  0.00     0.233 A 
ATOM     12  HN  UNL     1      62.530   7.984   5.013  1.00  0.00     0.166 HD
HETATM   13  O   UNL     1      65.584   8.164   6.079  1.00  0.00    -0.304 OA
ENDBRANCH   3   8
TORSDOF 1
ENDMDL
