MODEL 1
REMARK VINA RESULT:      -5.4      0.000      0.000
REMARK  2 active torsions:
REMARK  status: ('A' for Active; 'I' for Inactive)
REMARK    1  A    between atoms: N_1  and  C_7 
REMARK    2  A    between atoms: C_10  and  N_11 
ROOT
HETATM    1  C   UNL     1      61.596   9.279   3.397  1.00  0.00     0.056 A 
HETATM    2  C   UNL     1      61.573  10.678   3.445  1.00  0.00     0.034 A 
HETATM    3  C   UNL     1      62.386   8.578   4.313  1.00  0.00     0.034 A 
HETATM    4  C   UNL     1      63.027  10.660   5.396  1.00  0.00     0.025 A 
HETATM    5  C   UNL     1      62.288  11.359   4.439  1.00  0.00     0.031 A 
HETATM    6  C   UNL     1      63.117   9.272   5.286  1.00  0.00     0.031 A 
ENDROOT
BRANCH   1   7
HETATM    7  N   UNL     1      60.882   8.599   2.372  1.00  0.00    -0.261 N 
HETATM    8  N   UNL     1      59.709   7.979   2.668  1.00  0.00    -0.298 N 
HETATM    9  C   UNL     1      59.176   7.662   1.485  1.00  0.00     0.024 C 
ATOM     10  HN  UNL     1      59.319   7.796   3.593  1.00  0.00     0.187 HD
HETATM   11  C   UNL     1      60.065   7.926   0.430  1.00  0.00     0.052 C 
HETATM   12  C   UNL     1      57.813   7.083   1.403  1.00  0.00     0.070 C 
HETATM   13  C   UNL     1      61.187   8.468   1.021  1.00  0.00     0.032 C 
HETATM   14  C   UNL     1      62.505   8.769   0.409  1.00  0.00     0.070 C 
ENDBRANCH   1   7
BRANCH   4  15
HETATM   15  N   UNL     1      63.860  11.346   6.285  1.00  0.00    -0.399 N 
HETATM   16  H   UNL     1      64.559  10.860   6.780  1.00  0.00     0.156 HD
HETATM   17  H   UNL     1      63.747  12.315   6.418  1.00  0.00     0.156 HD
ENDBRANCH   4  15
TORSDOF 2
ENDMDL
MODEL 2
REMARK VINA RESULT:      -5.3      2.757      5.584
REMARK  2 active torsions:
REMARK  status: ('A' for Active; 'I' for Inactive)
REMARK    1  A    between atoms: N_1  and  C_7 
REMARK    2  A    between atoms: C_10  and  N_11 
ROOT
HETATM    1  C   UNL     1      63.296   8.891   4.593  1.00  0.00     0.056 A 
HETATM    2  C   UNL     1      62.972   8.602   3.262  1.00  0.00     0.034 A 
HETATM    3  C   UNL     1      62.975  10.147   5.116  1.00  0.00     0.034 A 
HETATM    4  C   UNL     1      61.902  10.775   3.024  1.00  0.00     0.025 A 
HETATM    5  C   UNL     1      62.282   9.543   2.487  1.00  0.00     0.031 A 
HETATM    6  C   UNL     1      62.307  11.088   4.322  1.00  0.00     0.031 A 
ENDROOT
BRANCH   1   7
HETATM    7  N   UNL     1      64.013   7.936   5.365  1.00  0.00    -0.261 N 
HETATM    8  N   UNL     1      65.372   7.926   5.327  1.00  0.00    -0.298 N 
HETATM    9  C   UNL     1      65.740   7.110   6.319  1.00  0.00     0.024 C 
ATOM     10  HN  UNL     1      65.980   8.431   4.682  1.00  0.00     0.187 HD
HETATM   11  C   UNL     1      64.634   6.467   6.897  1.00  0.00     0.052 C 
HETATM   12  C   UNL     1      67.172   6.953   6.674  1.00  0.00     0.070 C 
HETATM   13  C   UNL     1      63.531   6.958   6.229  1.00  0.00     0.032 C 
HETATM   14  C   UNL     1      62.121   6.501   6.302  1.00  0.00     0.070 C 
ENDBRANCH   1   7
BRANCH   4  15
HETATM   15  N   UNL     1      61.355  11.765   2.203  1.00  0.00    -0.399 N 
HETATM   16  H   UNL     1      60.929  11.518   1.350  1.00  0.00     0.156 HD
HETATM   17  H   UNL     1      61.395  12.710   2.478  1.00  0.00     0.156 HD
ENDBRANCH   4  15
TORSDOF 2
ENDMDL
MODEL 3
REMARK VINA RESULT:      -5.0      2.757      4.333
REMARK  2 active torsions:
REMARK  status: ('A' for Active; 'I' for Inactive)
REMARK    1  A    between atoms: N_1  and  C_7 
REMARK    2  A    between atoms: C_10  and  N_11 
ROOT
HETATM    1  C   UNL     1      64.025   8.162   5.061  1.00  0.00     0.056 A 
HETATM    2  C   UNL     1      63.403   7.144   5.793  1.00  0.00     0.034 A 
HETATM    3  C   UNL     1      65.372   8.451   5.303  1.00  0.00     0.034 A 
HETATM    4  C   UNL     1      65.501   6.630   6.912  1.00  0.00     0.025 A 
HETATM    5  C   UNL     1      64.140   6.388   6.713  1.00  0.00     0.031 A 
HETATM    6  C   UNL     1      66.092   7.705   6.245  1.00  0.00     0.031 A 
ENDROOT
BRANCH   1   7
HETATM    7  N   UNL     1      63.263   8.935   4.143  1.00  0.00    -0.261 N 
HETATM    8  N   UNL     1      63.074   8.481   2.875  1.00  0.00    -0.298 N 
HETATM    9  C   UNL     1      62.139   9.281   2.356  1.00  0.00     0.024 C 
ATOM     10  HN  UNL     1      63.545   7.699   2.419  1.00  0.00     0.187 HD
HETATM   11  C   UNL     1      61.833  10.346   3.218  1.00  0.00     0.052 C 
HETATM   12  C   UNL     1      61.572   9.004   1.014  1.00  0.00     0.070 C 
HETATM   13  C   UNL     1      62.613  10.150   4.338  1.00  0.00     0.032 C 
HETATM   14  C   UNL     1      62.830  11.060   5.490  1.00  0.00     0.070 C 
ENDBRANCH   1   7
BRANCH   4  15
HETATM   15  N   UNL     1      66.192   5.980   7.940  1.00  0.00    -0.399 N 
HETATM   16  H   UNL     1      66.671   6.507   8.621  1.00  0.00     0.156 HD
HETATM   17  H   UNL     1      66.201   4.997   7.982  1.00  0.00     0.156 HD
ENDBRANCH   4  15
TORSDOF 2
ENDMDL
MODEL 4
REMARK VINA RESULT:      -5.0      2.588      3.744
REMARK  2 active torsions:
REMARK  status: ('A' for Active; 'I' for Inactive)
REMARK    1  A    between atoms: N_1  and  C_7 
REMARK    2  A    between atoms: C_10  and  N_11 
ROOT
HETATM    1  C   UNL     1      63.481   8.189   4.490  1.00  0.00     0.056 A 
HETATM    2  C   UNL     1      64.842   8.430   4.711  1.00  0.00     0.034 A 
HETATM    3  C   UNL     1      62.810   7.271   5.303  1.00  0.00     0.034 A 
HETATM    4  C   UNL     1      64.822   6.931   6.628  1.00  0.00     0.025 A 
HETATM    5  C   UNL     1      65.504   7.801   5.773  1.00  0.00     0.031 A 
HETATM    6  C   UNL     1      63.489   6.628   6.346  1.00  0.00     0.031 A 
ENDROOT
BRANCH   1   7
HETATM    7  N   UNL     1      62.823   8.819   3.397  1.00  0.00    -0.261 N 
HETATM    8  N   UNL     1      62.365  10.092   3.532  1.00  0.00    -0.298 N 
HETATM    9  C   UNL     1      62.036  10.474   2.295  1.00  0.00     0.024 C 
ATOM     10  HN  UNL     1      62.290  10.637   4.391  1.00  0.00     0.187 HD
HETATM   11  C   UNL     1      62.125   9.410   1.384  1.00  0.00     0.052 C 
HETATM   12  C   UNL     1      61.617  11.871   2.025  1.00  0.00     0.070 C 
HETATM   13  C   UNL     1      62.570   8.331   2.120  1.00  0.00     0.032 C 
HETATM   14  C   UNL     1      62.675   6.908   1.711  1.00  0.00     0.070 C 
ENDBRANCH   1   7
BRANCH   4  15
HETATM   15  N   UNL     1      65.521   6.190   7.585  1.00  0.00    -0.399 N 
HETATM   16  H   UNL     1      65.157   5.333   7.906  1.00  0.00     0.156 HD
HETATM   17  H   UNL     1      66.376   6.524   7.939  1.00  0.00     0.156 HD
ENDBRANCH   4  15
TORSDOF 2
ENDMDL
MODEL 5
REMARK VINA RESULT:      -5.0      3.532      6.359
REMARK  2 active torsions:
REMARK  status: ('A' for Active; 'I' for Inactive)
REMARK    1  A    between atoms: N_1  and  C_7 
REMARK    2  A    between atoms: C_10  and  N_11 
ROOT
HETATM    1  C   UNL     1      64.522   8.062   4.955  1.00  0.00     0.056 A 
HETATM    2  C   UNL     1      63.846   9.254   5.242  1.00  0.00     0.034 A 
HETATM    3  C   UNL     1      64.134   7.309   3.843  1.00  0.00     0.034 A 
HETATM    4  C   UNL     1      62.487   8.995   3.240  1.00  0.00     0.025 A 
HETATM    5  C   UNL     1      62.834   9.711   4.387  1.00  0.00     0.031 A 
HETATM    6  C   UNL     1      63.104   7.763   3.011  1.00  0.00     0.031 A 
ENDROOT
BRANCH   1   7
HETATM    7  N   UNL     1      65.534   7.598   5.840  1.00  0.00    -0.261 N 
HETATM    8  N   UNL     1      65.208   7.261   7.116  1.00  0.00    -0.298 N 
HETATM    9  C   UNL     1      66.291   6.644   7.598  1.00  0.00     0.024 C 
ATOM     10  HN  UNL     1      64.328   7.439   7.600  1.00  0.00     0.187 HD
HETATM   11  C   UNL     1      67.370   6.719   6.703  1.00  0.00     0.052 C 
HETATM   12  C   UNL     1      66.261   6.009   8.938  1.00  0.00     0.070 C 
HETATM   13  C   UNL     1      66.889   7.395   5.601  1.00  0.00     0.032 C 
HETATM   14  C   UNL     1      67.638   7.912   4.429  1.00  0.00     0.070 C 
ENDBRANCH   1   7
BRANCH   4  15
HETATM   15  N   UNL     1      61.376   9.373   2.479  1.00  0.00    -0.399 N 
HETATM   16  H   UNL     1      60.486   9.014   2.697  1.00  0.00     0.156 HD
HETATM   17  H   UNL     1      61.485   9.997   1.726  1.00  0.00     0.156 HD
ENDBRANCH   4  15
TORSDOF 2
ENDMDL
MODEL 6
REMARK VINA RESULT:      -4.9      2.724      4.506
REMARK  2 active torsions:
REMARK  status: ('A' for Active; 'I' for Inactive)
REMARK    1  A    between atoms: N_1  and  C_7 
REMARK    2  A    between atoms: C_10  and  N_11 
ROOT
HETATM    1  C   UNL     1      62.594   8.888   4.235  1.00  0.00     0.056 A 
HETATM    2  C   UNL     1      62.422   8.719   2.856  1.00  0.00     0.034 A 
HETATM    3  C   UNL     1      62.464  10.167   4.786  1.00  0.00     0.034 A 
HETATM    4  C   UNL     1      61.869  11.076   2.609  1.00  0.00     0.025 A 
HETATM    5  C   UNL     1      62.063   9.809   2.053  1.00  0.00     0.031 A 
HETATM    6  C   UNL     1      62.131  11.254   3.969  1.00  0.00     0.031 A 
ENDROOT
BRANCH   1   7
HETATM    7  N   UNL     1      62.976   7.778   5.037  1.00  0.00    -0.261 N 
HETATM    8  N   UNL     1      62.020   6.953   5.541  1.00  0.00    -0.298 N 
HETATM    9  C   UNL     1      62.689   5.901   6.021  1.00  0.00     0.024 C 
ATOM     10  HN  UNL     1      61.011   7.104   5.551  1.00  0.00     0.187 HD
HETATM   11  C   UNL     1      64.077   6.107   5.978  1.00  0.00     0.052 C 
HETATM   12  C   UNL     1      61.960   4.717   6.537  1.00  0.00     0.070 C 
HETATM   13  C   UNL     1      64.248   7.349   5.403  1.00  0.00     0.032 C 
HETATM   14  C   UNL     1      65.491   8.150   5.272  1.00  0.00     0.070 C 
ENDBRANCH   1   7
BRANCH   4  15
HETATM   15  N   UNL     1      61.666  12.187   1.785  1.00  0.00    -0.399 N 
HETATM   16  H   UNL     1      62.207  12.999   1.912  1.00  0.00     0.156 HD
HETATM   17  H   UNL     1      60.982  12.157   1.078  1.00  0.00     0.156 HD
ENDBRANCH   4  15
TORSDOF 2
ENDMDL
MODEL 7
REMARK VINA RESULT:      -4.8      3.580      5.057
REMARK  2 active torsions:
REMARK  status: ('A' for Active; 'I' for Inactive)
REMARK    1  A    between atoms: N_1  and  C_7 
REMARK    2  A    between atoms: C_10  and  N_11 
ROOT
HETATM    1  C   UNL     1      65.057   7.627   5.481  1.00  0.00     0.056 A 
HETATM    2  C   UNL     1      64.730   6.836   6.588  1.00  0.00     0.034 A 
HETATM    3  C   UNL     1      66.396   7.961   5.254  1.00  0.00     0.034 A 
HETATM    4  C   UNL     1      67.084   6.616   7.161  1.00  0.00     0.025 A 
HETATM    5  C   UNL     1      65.741   6.338   7.421  1.00  0.00     0.031 A 
HETATM    6  C   UNL     1      67.395   7.479   6.108  1.00  0.00     0.031 A 
ENDROOT
BRANCH   1   7
HETATM    7  N   UNL     1      64.022   8.142   4.654  1.00  0.00    -0.261 N 
HETATM    8  N   UNL     1      63.384   9.289   5.010  1.00  0.00    -0.298 N 
HETATM    9  C   UNL     1      62.666   9.634   3.938  1.00  0.00     0.024 C 
ATOM     10  HN  UNL     1      63.441   9.779   5.903  1.00  0.00     0.187 HD
HETATM   11  C   UNL     1      62.706   8.640   2.947  1.00  0.00     0.052 C 
HETATM   12  C   UNL     1      61.932  10.922   3.906  1.00  0.00     0.070 C 
HETATM   13  C   UNL     1      63.529   7.653   3.448  1.00  0.00     0.032 C 
HETATM   14  C   UNL     1      63.788   6.295   2.907  1.00  0.00     0.070 C 
ENDBRANCH   1   7
BRANCH   4  15
HETATM   15  N   UNL     1      68.073   6.249   8.079  1.00  0.00    -0.399 N 
HETATM   16  H   UNL     1      68.226   5.298   8.283  1.00  0.00     0.156 HD
HETATM   17  H   UNL     1      68.615   6.941   8.522  1.00  0.00     0.156 HD
ENDBRANCH   4  15
TORSDOF 2
ENDMDL
MODEL 8
REMARK VINA RESULT:      -4.4      1.352      2.018
REMARK  2 active torsions:
REMARK  status: ('A' for Active; 'I' for Inactive)
REMARK    1  A    between atoms: N_1  and  C_7 
REMARK    2  A    between atoms: C_10  and  N_11 
ROOT
HETATM    1  C   UNL     1      62.395   8.220   3.355  1.00  0.00     0.056 A 
HETATM    2  C   UNL     1      63.359   7.216   3.502  1.00  0.00     0.034 A 
HETATM    3  C   UNL     1      62.474   9.364   4.156  1.00  0.00     0.034 A 
HETATM    4  C   UNL     1      64.541   8.556   5.153  1.00  0.00     0.025 A 
HETATM    5  C   UNL     1      64.422   7.387   4.398  1.00  0.00     0.031 A 
HETATM    6  C   UNL     1      63.528   9.512   5.067  1.00  0.00     0.031 A 
ENDROOT
BRANCH   1   7
HETATM    7  N   UNL     1      61.310   8.027   2.456  1.00  0.00    -0.261 N 
HETATM    8  N   UNL     1      60.144   7.497   2.914  1.00  0.00    -0.298 N 
HETATM    9  C   UNL     1      59.270   7.673   1.920  1.00  0.00     0.024 C 
ATOM     10  HN  UNL     1      59.974   7.059   3.819  1.00  0.00     0.187 HD
HETATM   11  C   UNL     1      59.894   8.168   0.763  1.00  0.00     0.052 C 
HETATM   12  C   UNL     1      57.838   7.335   2.107  1.00  0.00     0.070 C 
HETATM   13  C   UNL     1      61.222   8.329   1.102  1.00  0.00     0.032 C 
HETATM   14  C   UNL     1      62.372   8.653   0.221  1.00  0.00     0.070 C 
ENDBRANCH   1   7
BRANCH   4  15
HETATM   15  N   UNL     1      65.512   8.654   6.155  1.00  0.00    -0.399 N 
HETATM   16  H   UNL     1      65.868   7.839   6.577  1.00  0.00     0.156 HD
HETATM   17  H   UNL     1      65.839   9.538   6.438  1.00  0.00     0.156 HD
ENDBRANCH   4  15
TORSDOF 2
ENDMDL
MODEL 9
REMARK VINA RESULT:      -4.2      1.641      5.355
REMARK  2 active torsions:
REMARK  status: ('A' for Active; 'I' for Inactive)
REMARK    1  A    between atoms: N_1  and  C_7 
REMARK    2  A    between atoms: C_10  and  N_11 
ROOT
HETATM    1  C   UNL     1      60.695   8.275   2.763  1.00  0.00     0.056 A 
HETATM    2  C   UNL     1      59.710   7.564   3.458  1.00  0.00     0.034 A 
HETATM    3  C   UNL     1      60.586   8.411   1.375  1.00  0.00     0.034 A 
HETATM    4  C   UNL     1      58.454   7.239   1.399  1.00  0.00     0.025 A 
HETATM    5  C   UNL     1      58.600   7.050   2.775  1.00  0.00     0.031 A 
HETATM    6  C   UNL     1      59.485   7.870   0.701  1.00  0.00     0.031 A 
ENDROOT
BRANCH   1   7
HETATM    7  N   UNL     1      61.827   8.776   3.463  1.00  0.00    -0.261 N 
HETATM    8  N   UNL     1      61.760   9.994   4.063  1.00  0.00    -0.298 N 
HETATM    9  C   UNL     1      62.855  10.066   4.823  1.00  0.00     0.024 C 
ATOM     10  HN  UNL     1      61.031  10.701   3.956  1.00  0.00     0.187 HD
HETATM   11  C   UNL     1      63.712   8.976   4.601  1.00  0.00     0.052 C 
HETATM   12  C   UNL     1      63.061  11.212   5.742  1.00  0.00     0.070 C 
HETATM   13  C   UNL     1      63.068   8.185   3.672  1.00  0.00     0.032 C 
HETATM   14  C   UNL     1      63.586   7.002   2.941  1.00  0.00     0.070 C 
ENDBRANCH   1   7
BRANCH   4  15
HETATM   15  N   UNL     1      57.429   6.592   0.701  1.00  0.00    -0.399 N 
HETATM   16  H   UNL     1      56.886   5.905   1.150  1.00  0.00     0.156 HD
HETATM   17  H   UNL     1      57.251   6.824  -0.238  1.00  0.00     0.156 HD
ENDBRANCH   4  15
TORSDOF 2
ENDMDL
