MODEL 1
REMARK VINA RESULT:      -4.3      0.000      0.000
REMARK  1 active torsions:
REMARK  status: ('A' for Active; 'I' for Inactive)
REMARK    1  A    between atoms: C_1  and  C_6 
ROOT
HETATM    1  C   UNL     1      62.496   9.977   3.699  1.00  0.00     0.083 A 
HETATM    2  S   UNL     1      61.886  10.484   2.175  1.00  0.00    -0.082 SA
HETATM    3  C   UNL     1      62.940   8.668   3.695  1.00  0.00     0.046 A 
HETATM    4  C   UNL     1      62.219   8.915   1.493  1.00  0.00     0.023 A 
HETATM    5  C   UNL     1      62.770   8.067   2.412  1.00  0.00     0.023 A 
HETATM    6  S   UNL     1      63.102   6.493   1.734  1.00  0.00    -0.101 SA
HETATM    7  C   UNL     1      62.053   8.316   0.208  1.00  0.00     0.027 A 
HETATM    8  C   UNL     1      62.491   7.012   0.218  1.00  0.00     0.052 A 
ENDROOT
BRANCH   1   9
HETATM    9  C   UNL     1      62.489  10.920   4.798  1.00  0.00     0.216 C 
HETATM   10  O   UNL     1      62.975  10.805   5.913  1.00  0.00    -0.643 OA
HETATM   11  O   UNL     1      61.836  12.059   4.469  1.00  0.00    -0.643 OA
ENDBRANCH   1   9
TORSDOF 1
ENDMDL
MODEL 2
REMARK VINA RESULT:      -4.3      1.681      1.945
REMARK  1 active torsions:
REMARK  status: ('A' for Active; 'I' for Inactive)
REMARK    1  A    between atoms: C_1  and  C_6 
ROOT
HETATM    1  C   UNL     1      63.173   9.764   4.706  1.00  0.00     0.083 A 
HETATM    2  S   UNL     1      62.208   9.354   3.345  1.00  0.00    -0.082 SA
HETATM    3  C   UNL     1      64.165   8.837   4.963  1.00  0.00     0.046 A 
HETATM    4  C   UNL     1      63.135   7.900   3.096  1.00  0.00     0.023 A 
HETATM    5  C   UNL     1      64.127   7.763   4.025  1.00  0.00     0.023 A 
HETATM    6  S   UNL     1      65.056   6.305   3.780  1.00  0.00    -0.101 SA
HETATM    7  C   UNL     1      63.098   6.827   2.154  1.00  0.00     0.027 A 
HETATM    8  C   UNL     1      64.085   5.907   2.425  1.00  0.00     0.052 A 
ENDROOT
BRANCH   1   9
HETATM    9  C   UNL     1      62.875  10.984   5.426  1.00  0.00     0.216 C 
HETATM   10  O   UNL     1      63.250  11.333   6.536  1.00  0.00    -0.643 OA
HETATM   11  O   UNL     1      62.065  11.797   4.709  1.00  0.00    -0.643 OA
ENDBRANCH   1   9
TORSDOF 1
ENDMDL
MODEL 3
REMARK VINA RESULT:      -4.2      2.534      3.250
REMARK  1 active torsions:
REMARK  status: ('A' for Active; 'I' for Inactive)
REMARK    1  A    between atoms: C_1  and  C_6 
ROOT
HETATM    1  C   UNL     1      62.170   9.949   3.957  1.00  0.00     0.083 A 
HETATM    2  S   UNL     1      61.249   8.679   3.256  1.00  0.00    -0.082 SA
HETATM    3  C   UNL     1      63.014   9.512   4.961  1.00  0.00     0.046 A 
HETATM    4  C   UNL     1      61.992   7.519   4.323  1.00  0.00     0.023 A 
HETATM    5  C   UNL     1      62.897   8.105   5.162  1.00  0.00     0.023 A 
HETATM    6  S   UNL     1      63.641   6.946   6.235  1.00  0.00    -0.101 SA
HETATM    7  C   UNL     1      61.877   6.109   4.520  1.00  0.00     0.027 A 
HETATM    8  C   UNL     1      62.716   5.688   5.527  1.00  0.00     0.052 A 
ENDROOT
BRANCH   1   9
HETATM    9  C   UNL     1      61.988  11.295   3.459  1.00  0.00     0.216 C 
HETATM   10  O   UNL     1      61.957  11.689   2.302  1.00  0.00    -0.643 OA
HETATM   11  O   UNL     1      61.839  12.182   4.470  1.00  0.00    -0.643 OA
ENDBRANCH   1   9
TORSDOF 1
ENDMDL
MODEL 4
REMARK VINA RESULT:      -4.0      2.723      3.873
REMARK  1 active torsions:
REMARK  status: ('A' for Active; 'I' for Inactive)
REMARK    1  A    between atoms: C_1  and  C_6 
ROOT
HETATM    1  C   UNL     1      64.863   8.004   5.186  1.00  0.00     0.083 A 
HETATM    2  S   UNL     1      64.599   6.892   3.902  1.00  0.00    -0.082 SA
HETATM    3  C   UNL     1      64.030   9.105   5.125  1.00  0.00     0.046 A 
HETATM    4  C   UNL     1      63.345   7.910   3.247  1.00  0.00     0.023 A 
HETATM    5  C   UNL     1      63.160   9.037   3.996  1.00  0.00     0.023 A 
HETATM    6  S   UNL     1      61.906  10.060   3.342  1.00  0.00    -0.101 SA
HETATM    7  C   UNL     1      62.472   7.839   2.119  1.00  0.00     0.027 A 
HETATM    8  C   UNL     1      61.654   8.943   2.066  1.00  0.00     0.052 A 
ENDROOT
BRANCH   1   9
HETATM    9  C   UNL     1      65.884   7.702   6.166  1.00  0.00     0.216 C 
HETATM   10  O   UNL     1      66.262   6.612   6.571  1.00  0.00    -0.643 OA
HETATM   11  O   UNL     1      66.449   8.829   6.655  1.00  0.00    -0.643 OA
ENDBRANCH   1   9
TORSDOF 1
ENDMDL
MODEL 5
REMARK VINA RESULT:      -4.0      2.352      3.039
REMARK  1 active torsions:
REMARK  status: ('A' for Active; 'I' for Inactive)
REMARK    1  A    between atoms: C_1  and  C_6 
ROOT
HETATM    1  C   UNL     1      62.043   9.884   3.888  1.00  0.00     0.083 A 
HETATM    2  S   UNL     1      63.243   9.303   4.972  1.00  0.00    -0.082 SA
HETATM    3  C   UNL     1      61.267   8.875   3.351  1.00  0.00     0.046 A 
HETATM    4  C   UNL     1      62.716   7.662   4.713  1.00  0.00     0.023 A 
HETATM    5  C   UNL     1      61.671   7.595   3.835  1.00  0.00     0.023 A 
HETATM    6  S   UNL     1      61.142   5.953   3.571  1.00  0.00    -0.101 SA
HETATM    7  C   UNL     1      63.119   6.382   5.201  1.00  0.00     0.027 A 
HETATM    8  C   UNL     1      62.345   5.386   4.653  1.00  0.00     0.052 A 
ENDROOT
BRANCH   1   9
HETATM    9  C   UNL     1      61.957  11.309   3.647  1.00  0.00     0.216 C 
HETATM   10  O   UNL     1      61.839  12.220   4.454  1.00  0.00    -0.643 OA
HETATM   11  O   UNL     1      62.022  11.593   2.326  1.00  0.00    -0.643 OA
ENDBRANCH   1   9
TORSDOF 1
ENDMDL
MODEL 6
REMARK VINA RESULT:      -3.9      2.282      2.620
REMARK  1 active torsions:
REMARK  status: ('A' for Active; 'I' for Inactive)
REMARK    1  A    between atoms: C_1  and  C_6 
ROOT
HETATM    1  C   UNL     1      63.824   8.148   4.513  1.00  0.00     0.083 A 
HETATM    2  S   UNL     1      62.809   9.500   4.206  1.00  0.00    -0.082 SA
HETATM    3  C   UNL     1      63.832   7.233   3.478  1.00  0.00     0.046 A 
HETATM    4  C   UNL     1      62.366   8.844   2.653  1.00  0.00     0.023 A 
HETATM    5  C   UNL     1      62.982   7.648   2.411  1.00  0.00     0.023 A 
HETATM    6  S   UNL     1      62.539   6.987   0.857  1.00  0.00    -0.101 SA
HETATM    7  C   UNL     1      61.517   9.263   1.583  1.00  0.00     0.027 A 
HETATM    8  C   UNL     1      61.528   8.340   0.563  1.00  0.00     0.052 A 
ENDROOT
BRANCH   1   9
HETATM    9  C   UNL     1      64.543   8.092   5.768  1.00  0.00     0.216 C 
HETATM   10  O   UNL     1      64.413   7.305   6.694  1.00  0.00    -0.643 OA
HETATM   11  O   UNL     1      65.466   9.078   5.855  1.00  0.00    -0.643 OA
ENDBRANCH   1   9
TORSDOF 1
ENDMDL
MODEL 7
REMARK VINA RESULT:      -3.7      3.389      4.591
REMARK  1 active torsions:
REMARK  status: ('A' for Active; 'I' for Inactive)
REMARK    1  A    between atoms: C_1  and  C_6 
ROOT
HETATM    1  C   UNL     1      62.853   8.844   4.641  1.00  0.00     0.083 A 
HETATM    2  S   UNL     1      62.381   7.337   5.317  1.00  0.00    -0.082 SA
HETATM    3  C   UNL     1      64.182   9.147   4.873  1.00  0.00     0.046 A 
HETATM    4  C   UNL     1      63.989   7.085   5.940  1.00  0.00     0.023 A 
HETATM    5  C   UNL     1      64.824   8.121   5.628  1.00  0.00     0.023 A 
HETATM    6  S   UNL     1      66.435   7.874   6.253  1.00  0.00    -0.101 SA
HETATM    7  C   UNL     1      64.632   6.056   6.693  1.00  0.00     0.027 A 
HETATM    8  C   UNL     1      65.950   6.373   6.924  1.00  0.00     0.052 A 
ENDROOT
BRANCH   1   9
HETATM    9  C   UNL     1      61.866   9.623   3.924  1.00  0.00     0.216 C 
HETATM   10  O   UNL     1      61.592  10.809   4.037  1.00  0.00    -0.643 OA
HETATM   11  O   UNL     1      61.195   8.866   3.025  1.00  0.00    -0.643 OA
ENDBRANCH   1   9
TORSDOF 1
ENDMDL
MODEL 8
REMARK VINA RESULT:      -3.7      2.741      3.153
REMARK  1 active torsions:
REMARK  status: ('A' for Active; 'I' for Inactive)
REMARK    1  A    between atoms: C_1  and  C_6 
ROOT
HETATM    1  C   UNL     1      62.148   7.513   4.920  1.00  0.00     0.083 A 
HETATM    2  S   UNL     1      63.274   8.367   3.943  1.00  0.00    -0.082 SA
HETATM    3  C   UNL     1      60.992   7.176   4.241  1.00  0.00     0.046 A 
HETATM    4  C   UNL     1      62.189   8.289   2.582  1.00  0.00     0.023 A 
HETATM    5  C   UNL     1      61.030   7.634   2.891  1.00  0.00     0.023 A 
HETATM    6  S   UNL     1      59.939   7.557   1.530  1.00  0.00    -0.101 SA
HETATM    7  C   UNL     1      62.230   8.745   1.229  1.00  0.00     0.027 A 
HETATM    8  C   UNL     1      61.072   8.410   0.567  1.00  0.00     0.052 A 
ENDROOT
BRANCH   1   9
HETATM    9  C   UNL     1      62.494   7.237   6.298  1.00  0.00     0.216 C 
HETATM   10  O   UNL     1      63.506   7.541   6.912  1.00  0.00    -0.643 OA
HETATM   11  O   UNL     1      61.515   6.545   6.925  1.00  0.00    -0.643 OA
ENDBRANCH   1   9
TORSDOF 1
ENDMDL
MODEL 9
REMARK VINA RESULT:      -3.5      3.467      4.456
REMARK  1 active torsions:
REMARK  status: ('A' for Active; 'I' for Inactive)
REMARK    1  A    between atoms: C_1  and  C_6 
ROOT
HETATM    1  C   UNL     1      64.795   7.882   5.555  1.00  0.00     0.083 A 
HETATM    2  S   UNL     1      63.866   6.560   6.139  1.00  0.00    -0.082 SA
HETATM    3  C   UNL     1      64.110   8.659   4.640  1.00  0.00     0.046 A 
HETATM    4  C   UNL     1      62.519   7.034   5.141  1.00  0.00     0.023 A 
HETATM    5  C   UNL     1      62.796   8.154   4.408  1.00  0.00     0.023 A 
HETATM    6  S   UNL     1      61.450   8.630   3.405  1.00  0.00    -0.101 SA
HETATM    7  C   UNL     1      61.202   6.529   4.913  1.00  0.00     0.027 A 
HETATM    8  C   UNL     1      60.535   7.306   3.995  1.00  0.00     0.052 A 
ENDROOT
BRANCH   1   9
HETATM    9  C   UNL     1      66.144   8.055   6.050  1.00  0.00     0.216 C 
HETATM   10  O   UNL     1      66.584   8.914   6.799  1.00  0.00    -0.643 OA
HETATM   11  O   UNL     1      66.972   7.097   5.573  1.00  0.00    -0.643 OA
ENDBRANCH   1   9
TORSDOF 1
ENDMDL
