MODEL 1
REMARK VINA RESULT:      -5.2      0.000      0.000
REMARK  3 active torsions:
REMARK  status: ('A' for Active; 'I' for Inactive)
REMARK    1  A    between atoms: C_1  and  C_3 
REMARK    2  A    between atoms: C_2  and  N_7 
REMARK    3  A    between atoms: N_7  and  N_11 
ROOT
HETATM    1  C   UNL     1      63.769   8.912   4.966  1.00  0.00     0.117 A 
HETATM    2  C   UNL     1      62.451   9.305   2.965  1.00  0.00     0.052 A 
HETATM    3  C   UNL     1      63.338   8.508   3.703  1.00  0.00     0.066 A 
HETATM    4  N   UNL     1      63.328  10.086   5.494  1.00  0.00    -0.351 N 
ATOM      5  HN  UNL     1      63.648  10.393   6.412  1.00  0.00     0.166 HD
HETATM    6  C   UNL     1      62.463  10.836   4.782  1.00  0.00     0.090 A 
HETATM    7  C   UNL     1      61.999  10.498   3.528  1.00  0.00     0.033 A 
ENDROOT
BRANCH   1   8
HETATM    8  N   UNL     1      64.682   8.157   5.722  1.00  0.00    -0.305 N 
HETATM    9  C   UNL     1      64.298   6.895   6.338  1.00  0.00     0.173 C 
BRANCH   8  10
HETATM   10  N   UNL     1      65.879   8.789   6.146  1.00  0.00    -0.246 NA
HETATM   11  H   UNL     1      66.273   9.324   5.371  1.00  0.00     0.143 HD
HETATM   12  H   UNL     1      66.549   8.081   6.447  1.00  0.00     0.143 HD
ENDBRANCH   8  10
ENDBRANCH   1   8
BRANCH   2  13
HETATM   13  C   UNL     1      62.003   8.894   1.590  1.00  0.00     0.417 C 
HETATM   14  F   UNL     1      62.596   9.602   0.590  1.00  0.00    -0.166 F 
HETATM   15  F   UNL     1      60.662   9.050   1.413  1.00  0.00    -0.166 F 
HETATM   16  F   UNL     1      62.265   7.584   1.326  1.00  0.00    -0.166 F 
ENDBRANCH   2  13
TORSDOF 3
ENDMDL
MODEL 2
REMARK VINA RESULT:      -4.8      1.876      2.706
REMARK  3 active torsions:
REMARK  status: ('A' for Active; 'I' for Inactive)
REMARK    1  A    between atoms: C_1  and  C_3 
REMARK    2  A    between atoms: C_2  and  N_7 
REMARK    3  A    between atoms: N_7  and  N_11 
ROOT
HETATM    1  C   UNL     1      64.786   7.794   5.137  1.00  0.00     0.117 A 
HETATM    2  C   UNL     1      63.097   8.988   3.865  1.00  0.00     0.052 A 
HETATM    3  C   UNL     1      63.953   8.900   4.973  1.00  0.00     0.066 A 
HETATM    4  N   UNL     1      64.775   6.790   4.220  1.00  0.00    -0.351 N 
ATOM      5  HN  UNL     1      65.373   5.972   4.339  1.00  0.00     0.166 HD
HETATM    6  C   UNL     1      63.960   6.892   3.150  1.00  0.00     0.090 A 
HETATM    7  C   UNL     1      63.109   7.955   2.928  1.00  0.00     0.033 A 
ENDROOT
BRANCH   1   8
HETATM    8  N   UNL     1      65.634   7.654   6.249  1.00  0.00    -0.305 N 
HETATM    9  C   UNL     1      65.446   6.585   7.219  1.00  0.00     0.173 C 
BRANCH   8  10
HETATM   10  N   UNL     1      66.471   8.748   6.589  1.00  0.00    -0.246 NA
HETATM   11  H   UNL     1      67.412   8.406   6.785  1.00  0.00     0.143 HD
HETATM   12  H   UNL     1      66.100   9.215   7.417  1.00  0.00     0.143 HD
ENDBRANCH   8  10
ENDBRANCH   1   8
BRANCH   2  13
HETATM   13  C   UNL     1      62.173  10.162   3.693  1.00  0.00     0.417 C 
HETATM   14  F   UNL     1      62.413  11.176   4.570  1.00  0.00    -0.166 F 
HETATM   15  F   UNL     1      60.866   9.823   3.864  1.00  0.00    -0.166 F 
HETATM   16  F   UNL     1      62.259  10.715   2.452  1.00  0.00    -0.166 F 
ENDBRANCH   2  13
TORSDOF 3
ENDMDL
MODEL 3
REMARK VINA RESULT:      -4.4      1.684      2.357
REMARK  3 active torsions:
REMARK  status: ('A' for Active; 'I' for Inactive)
REMARK    1  A    between atoms: C_1  and  C_3 
REMARK    2  A    between atoms: C_2  and  N_7 
REMARK    3  A    between atoms: N_7  and  N_11 
ROOT
HETATM    1  C   UNL     1      62.943   7.877   4.731  1.00  0.00     0.117 A 
HETATM    2  C   UNL     1      61.748   8.560   2.730  1.00  0.00     0.052 A 
HETATM    3  C   UNL     1      62.889   8.607   3.544  1.00  0.00     0.066 A 
HETATM    4  N   UNL     1      61.885   7.110   5.108  1.00  0.00    -0.351 N 
ATOM      5  HN  UNL     1      61.913   6.582   5.980  1.00  0.00     0.166 HD
HETATM    6  C   UNL     1      60.800   7.058   4.310  1.00  0.00     0.090 A 
HETATM    7  C   UNL     1      60.679   7.756   3.126  1.00  0.00     0.033 A 
ENDROOT
BRANCH   1   8
HETATM    8  N   UNL     1      64.055   7.924   5.588  1.00  0.00    -0.305 N 
HETATM    9  C   UNL     1      65.381   8.270   5.096  1.00  0.00     0.173 C 
BRANCH   8  10
HETATM   10  N   UNL     1      63.936   7.322   6.867  1.00  0.00    -0.246 NA
HETATM   11  H   UNL     1      64.103   6.319   6.787  1.00  0.00     0.143 HD
HETATM   12  H   UNL     1      62.998   7.483   7.233  1.00  0.00     0.143 HD
ENDBRANCH   8  10
ENDBRANCH   1   8
BRANCH   2  13
HETATM   13  C   UNL     1      61.667   9.365   1.463  1.00  0.00     0.417 C 
HETATM   14  F   UNL     1      60.511   9.174   0.770  1.00  0.00    -0.166 F 
HETATM   15  F   UNL     1      62.675   9.070   0.596  1.00  0.00    -0.166 F 
HETATM   16  F   UNL     1      61.748  10.705   1.691  1.00  0.00    -0.166 F 
ENDBRANCH   2  13
TORSDOF 3
ENDMDL
MODEL 4
REMARK VINA RESULT:      -4.4      3.565      5.016
REMARK  3 active torsions:
REMARK  status: ('A' for Active; 'I' for Inactive)
REMARK    1  A    between atoms: C_1  and  C_3 
REMARK    2  A    between atoms: C_2  and  N_7 
REMARK    3  A    between atoms: N_7  and  N_11 
ROOT
HETATM    1  C   UNL     1      62.991   9.096   4.852  1.00  0.00     0.117 A 
HETATM    2  C   UNL     1      64.970   7.958   5.680  1.00  0.00     0.052 A 
HETATM    3  C   UNL     1      64.368   9.067   5.069  1.00  0.00     0.066 A 
HETATM    4  N   UNL     1      62.219   8.044   5.234  1.00  0.00    -0.351 N 
ATOM      5  HN  UNL     1      61.213   8.053   5.069  1.00  0.00     0.166 HD
HETATM    6  C   UNL     1      62.805   6.989   5.836  1.00  0.00     0.090 A 
HETATM    7  C   UNL     1      64.160   6.895   6.078  1.00  0.00     0.033 A 
ENDROOT
BRANCH   1   8
HETATM    8  N   UNL     1      62.357  10.175   4.214  1.00  0.00    -0.305 N 
HETATM    9  C   UNL     1      61.960  10.106   2.815  1.00  0.00     0.173 C 
BRANCH   8  10
HETATM   10  N   UNL     1      62.395  11.442   4.852  1.00  0.00    -0.246 NA
HETATM   11  H   UNL     1      61.473  11.660   5.229  1.00  0.00     0.143 HD
HETATM   12  H   UNL     1      62.664  12.156   4.175  1.00  0.00     0.143 HD
ENDBRANCH   8  10
ENDBRANCH   1   8
BRANCH   2  13
HETATM   13  C   UNL     1      66.458   7.904   5.893  1.00  0.00     0.417 C 
HETATM   14  F   UNL     1      67.178   8.214   4.780  1.00  0.00    -0.166 F 
HETATM   15  F   UNL     1      66.881   6.669   6.279  1.00  0.00    -0.166 F 
HETATM   16  F   UNL     1      66.877   8.764   6.861  1.00  0.00    -0.166 F 
ENDBRANCH   2  13
TORSDOF 3
ENDMDL
MODEL 5
REMARK VINA RESULT:      -4.3      3.541      4.882
REMARK  3 active torsions:
REMARK  status: ('A' for Active; 'I' for Inactive)
REMARK    1  A    between atoms: C_1  and  C_3 
REMARK    2  A    between atoms: C_2  and  N_7 
REMARK    3  A    between atoms: N_7  and  N_11 
ROOT
HETATM    1  C   UNL     1      66.844   6.432   7.271  1.00  0.00     0.117 A 
HETATM    2  C   UNL     1      65.507   7.700   5.688  1.00  0.00     0.052 A 
HETATM    3  C   UNL     1      65.606   6.913   6.845  1.00  0.00     0.066 A 
HETATM    4  N   UNL     1      67.969   6.726   6.565  1.00  0.00    -0.351 N 
ATOM      5  HN  UNL     1      68.876   6.368   6.864  1.00  0.00     0.166 HD
HETATM    6  C   UNL     1      67.865   7.497   5.464  1.00  0.00     0.090 A 
HETATM    7  C   UNL     1      66.673   8.002   4.985  1.00  0.00     0.033 A 
ENDROOT
BRANCH   1   8
HETATM    8  N   UNL     1      66.978   5.615   8.406  1.00  0.00    -0.305 N 
HETATM    9  C   UNL     1      68.075   5.795   9.347  1.00  0.00     0.173 C 
BRANCH   8  10
HETATM   10  N   UNL     1      66.225   4.414   8.455  1.00  0.00    -0.246 NA
HETATM   11  H   UNL     1      65.373   4.525   7.905  1.00  0.00     0.143 HD
HETATM   12  H   UNL     1      65.980   4.205   9.423  1.00  0.00     0.143 HD
ENDBRANCH   8  10
ENDBRANCH   1   8
BRANCH   2  13
HETATM   13  C   UNL     1      64.175   8.199   5.203  1.00  0.00     0.417 C 
HETATM   14  F   UNL     1      64.146   9.542   4.979  1.00  0.00    -0.166 F 
HETATM   15  F   UNL     1      63.173   7.948   6.090  1.00  0.00    -0.166 F 
HETATM   16  F   UNL     1      63.794   7.617   4.033  1.00  0.00    -0.166 F 
ENDBRANCH   2  13
TORSDOF 3
ENDMDL
MODEL 6
REMARK VINA RESULT:      -4.2     11.367     12.688
REMARK  3 active torsions:
REMARK  status: ('A' for Active; 'I' for Inactive)
REMARK    1  A    between atoms: C_1  and  C_3 
REMARK    2  A    between atoms: C_2  and  N_7 
REMARK    3  A    between atoms: N_7  and  N_11 
ROOT
HETATM    1  C   UNL     1      56.541   2.199  13.581  1.00  0.00     0.117 A 
HETATM    2  C   UNL     1      58.106   2.488  11.747  1.00  0.00     0.052 A 
HETATM    3  C   UNL     1      56.810   2.593  12.271  1.00  0.00     0.066 A 
HETATM    4  N   UNL     1      57.540   1.710  14.365  1.00  0.00    -0.351 N 
ATOM      5  HN  UNL     1      57.349   1.410  15.320  1.00  0.00     0.166 HD
HETATM    6  C   UNL     1      58.786   1.629  13.856  1.00  0.00     0.090 A 
HETATM    7  C   UNL     1      59.120   1.997  12.569  1.00  0.00     0.033 A 
ENDROOT
BRANCH   1   8
HETATM    8  N   UNL     1      55.249   2.260  14.131  1.00  0.00    -0.305 N 
HETATM    9  C   UNL     1      54.194   1.356  13.695  1.00  0.00     0.173 C 
BRANCH   8  10
HETATM   10  N   UNL     1      54.897   3.413  14.878  1.00  0.00    -0.246 NA
HETATM   11  H   UNL     1      54.879   4.225  14.261  1.00  0.00     0.143 HD
HETATM   12  H   UNL     1      55.584   3.563  15.617  1.00  0.00     0.143 HD
ENDBRANCH   8  10
ENDBRANCH   1   8
BRANCH   2  13
HETATM   13  C   UNL     1      58.401   2.883  10.327  1.00  0.00     0.417 C 
HETATM   14  F   UNL     1      59.357   2.113   9.736  1.00  0.00    -0.166 F 
HETATM   15  F   UNL     1      58.842   4.167  10.226  1.00  0.00    -0.166 F 
HETATM   16  F   UNL     1      57.305   2.798   9.524  1.00  0.00    -0.166 F 
ENDBRANCH   2  13
TORSDOF 3
ENDMDL
MODEL 7
REMARK VINA RESULT:      -4.1      2.838      3.805
REMARK  3 active torsions:
REMARK  status: ('A' for Active; 'I' for Inactive)
REMARK    1  A    between atoms: C_1  and  C_3 
REMARK    2  A    between atoms: C_2  and  N_7 
REMARK    3  A    between atoms: N_7  and  N_11 
ROOT
HETATM    1  C   UNL     1      61.951   9.411   3.528  1.00  0.00     0.117 A 
HETATM    2  C   UNL     1      62.652   7.201   2.805  1.00  0.00     0.052 A 
HETATM    3  C   UNL     1      62.964   8.498   3.236  1.00  0.00     0.066 A 
HETATM    4  N   UNL     1      60.647   9.046   3.398  1.00  0.00    -0.351 N 
ATOM      5  HN  UNL     1      59.900   9.711   3.598  1.00  0.00     0.166 HD
HETATM    6  C   UNL     1      60.358   7.791   2.998  1.00  0.00     0.090 A 
HETATM    7  C   UNL     1      61.309   6.841   2.690  1.00  0.00     0.033 A 
ENDROOT
BRANCH   1   8
HETATM    8  N   UNL     1      62.224  10.728   3.932  1.00  0.00    -0.305 N 
HETATM    9  C   UNL     1      62.708  11.028   5.273  1.00  0.00     0.173 C 
BRANCH   8  10
HETATM   10  N   UNL     1      61.721  11.788   3.134  1.00  0.00    -0.246 NA
HETATM   11  H   UNL     1      61.090  11.409   2.427  1.00  0.00     0.143 HD
HETATM   12  H   UNL     1      62.497  12.266   2.676  1.00  0.00     0.143 HD
ENDBRANCH   8  10
ENDBRANCH   1   8
BRANCH   2  13
HETATM   13  C   UNL     1      63.736   6.218   2.459  1.00  0.00     0.417 C 
HETATM   14  F   UNL     1      64.957   6.559   2.957  1.00  0.00    -0.166 F 
HETATM   15  F   UNL     1      63.905   6.084   1.115  1.00  0.00    -0.166 F 
HETATM   16  F   UNL     1      63.476   4.968   2.932  1.00  0.00    -0.166 F 
ENDBRANCH   2  13
TORSDOF 3
ENDMDL
MODEL 8
REMARK VINA RESULT:      -4.0     10.778     12.322
REMARK  3 active torsions:
REMARK  status: ('A' for Active; 'I' for Inactive)
REMARK    1  A    between atoms: C_1  and  C_3 
REMARK    2  A    between atoms: C_2  and  N_7 
REMARK    3  A    between atoms: N_7  and  N_11 
ROOT
HETATM    1  C   UNL     1      58.565   2.736  10.274  1.00  0.00     0.117 A 
HETATM    2  C   UNL     1      58.364   1.626  12.424  1.00  0.00     0.052 A 
HETATM    3  C   UNL     1      58.113   2.727  11.592  1.00  0.00     0.066 A 
HETATM    4  N   UNL     1      59.254   1.671   9.782  1.00  0.00    -0.351 N 
ATOM      5  HN  UNL     1      59.598   1.675   8.822  1.00  0.00     0.166 HD
HETATM    6  C   UNL     1      59.475   0.611  10.585  1.00  0.00     0.090 A 
HETATM    7  C   UNL     1      59.060   0.538  11.898  1.00  0.00     0.033 A 
ENDROOT
BRANCH   1   8
HETATM    8  N   UNL     1      58.362   3.833   9.420  1.00  0.00    -0.305 N 
HETATM    9  C   UNL     1      58.175   3.658   7.987  1.00  0.00     0.173 C 
BRANCH   8  10
HETATM   10  N   UNL     1      58.658   5.128   9.918  1.00  0.00    -0.246 NA
HETATM   11  H   UNL     1      59.548   5.445   9.531  1.00  0.00     0.143 HD
HETATM   12  H   UNL     1      58.721   5.095  10.935  1.00  0.00     0.143 HD
ENDBRANCH   8  10
ENDBRANCH   1   8
BRANCH   2  13
HETATM   13  C   UNL     1      57.906   1.617  13.856  1.00  0.00     0.417 C 
HETATM   14  F   UNL     1      57.650   0.370  14.338  1.00  0.00    -0.166 F 
HETATM   15  F   UNL     1      56.760   2.329  14.038  1.00  0.00    -0.166 F 
HETATM   16  F   UNL     1      58.824   2.163  14.700  1.00  0.00    -0.166 F 
ENDBRANCH   2  13
TORSDOF 3
ENDMDL
MODEL 9
REMARK VINA RESULT:      -4.0      3.956      4.954
REMARK  3 active torsions:
REMARK  status: ('A' for Active; 'I' for Inactive)
REMARK    1  A    between atoms: C_1  and  C_3 
REMARK    2  A    between atoms: C_2  and  N_7 
REMARK    3  A    between atoms: N_7  and  N_11 
ROOT
HETATM    1  C   UNL     1      60.191   8.092   2.485  1.00  0.00     0.117 A 
HETATM    2  C   UNL     1      62.090   9.018   3.684  1.00  0.00     0.052 A 
HETATM    3  C   UNL     1      60.955   8.195   3.647  1.00  0.00     0.066 A 
HETATM    4  N   UNL     1      60.545   8.792   1.374  1.00  0.00    -0.351 N 
ATOM      5  HN  UNL     1      59.985   8.731   0.524  1.00  0.00     0.166 HD
HETATM    6  C   UNL     1      61.647   9.567   1.414  1.00  0.00     0.090 A 
HETATM    7  C   UNL     1      62.444   9.717   2.530  1.00  0.00     0.033 A 
ENDROOT
BRANCH   1   8
HETATM    8  N   UNL     1      59.031   7.303   2.420  1.00  0.00    -0.305 N 
HETATM    9  C   UNL     1      59.034   5.909   2.840  1.00  0.00     0.173 C 
BRANCH   8  10
HETATM   10  N   UNL     1      57.943   7.781   1.645  1.00  0.00    -0.246 NA
HETATM   11  H   UNL     1      58.217   8.643   1.172  1.00  0.00     0.143 HD
HETATM   12  H   UNL     1      57.147   7.966   2.255  1.00  0.00     0.143 HD
ENDBRANCH   8  10
ENDBRANCH   1   8
BRANCH   2  13
HETATM   13  C   UNL     1      62.904   9.158   4.940  1.00  0.00     0.417 C 
HETATM   14  F   UNL     1      64.247   9.090   4.728  1.00  0.00    -0.166 F 
HETATM   15  F   UNL     1      62.621   8.189   5.853  1.00  0.00    -0.166 F 
HETATM   16  F   UNL     1      62.687  10.344   5.572  1.00  0.00    -0.166 F 
ENDBRANCH   2  13
TORSDOF 3
ENDMDL
