MODEL 1
REMARK VINA RESULT:      -4.0      0.000      0.000
REMARK  2 active torsions:
REMARK  status: ('A' for Active; 'I' for Inactive)
REMARK    1  A    between atoms: C_1  and  C_2 
REMARK    2  A    between atoms: C_2  and  O_8 
ROOT
HETATM    1  C   UNL     1      61.567   9.709   1.771  1.00  0.00     0.108 A 
HETATM    2  N   UNL     1      60.421   8.945   1.824  1.00  0.00    -0.361 N 
HETATM    3  C   UNL     1      62.402   9.106   0.844  1.00  0.00     0.037 A 
HETATM    4  C   UNL     1      60.519   7.885   0.962  1.00  0.00     0.088 A 
HETATM    5  C   UNL     1      61.743   7.959   0.338  1.00  0.00     0.019 A 
HETATM    6  H   UNL     1      59.644   9.134   2.397  1.00  0.00     0.165 HD
ENDROOT
BRANCH   1   7
HETATM    7  C   UNL     1      61.737  10.891   2.582  1.00  0.00     0.309 C 
HETATM    8  O   UNL     1      62.064  11.987   2.145  1.00  0.00    -0.258 OA
BRANCH   7   9
HETATM    9  O   UNL     1      61.481  10.610   3.889  1.00  0.00    -0.321 OA
HETATM   10  C   UNL     1      62.526  11.001   4.779  1.00  0.00     0.213 C 
ENDBRANCH   7   9
ENDBRANCH   1   7
TORSDOF 2
ENDMDL
MODEL 2
REMARK VINA RESULT:      -3.9      3.919      4.957
REMARK  2 active torsions:
REMARK  status: ('A' for Active; 'I' for Inactive)
REMARK    1  A    between atoms: C_1  and  C_2 
REMARK    2  A    between atoms: C_2  and  O_8 
ROOT
HETATM    1  C   UNL     1      63.729   9.258   4.986  1.00  0.00     0.108 A 
HETATM    2  N   UNL     1      63.513  10.441   5.660  1.00  0.00    -0.361 N 
HETATM    3  C   UNL     1      62.841   9.241   3.922  1.00  0.00     0.037 A 
HETATM    4  C   UNL     1      62.517  11.158   5.052  1.00  0.00     0.088 A 
HETATM    5  C   UNL     1      62.080  10.435   3.966  1.00  0.00     0.019 A 
HETATM    6  H   UNL     1      64.004  10.729   6.463  1.00  0.00     0.165 HD
ENDROOT
BRANCH   1   7
HETATM    7  C   UNL     1      64.724   8.304   5.414  1.00  0.00     0.309 C 
HETATM    8  O   UNL     1      64.663   7.100   5.199  1.00  0.00    -0.258 OA
BRANCH   7   9
HETATM    9  O   UNL     1      65.728   8.933   6.083  1.00  0.00    -0.321 OA
HETATM   10  C   UNL     1      66.734   8.050   6.579  1.00  0.00     0.213 C 
ENDBRANCH   7   9
ENDBRANCH   1   7
TORSDOF 2
ENDMDL
MODEL 3
REMARK VINA RESULT:      -3.9      2.622      3.777
REMARK  2 active torsions:
REMARK  status: ('A' for Active; 'I' for Inactive)
REMARK    1  A    between atoms: C_1  and  C_2 
REMARK    2  A    between atoms: C_2  and  O_8 
ROOT
HETATM    1  C   UNL     1      62.782   9.632   4.276  1.00  0.00     0.108 A 
HETATM    2  N   UNL     1      62.644   8.982   3.068  1.00  0.00    -0.361 N 
HETATM    3  C   UNL     1      62.239  10.896   4.110  1.00  0.00     0.037 A 
HETATM    4  C   UNL     1      62.035   9.804   2.156  1.00  0.00     0.088 A 
HETATM    5  C   UNL     1      61.772  11.003   2.778  1.00  0.00     0.019 A 
HETATM    6  H   UNL     1      62.939   8.061   2.886  1.00  0.00     0.165 HD
ENDROOT
BRANCH   1   7
HETATM    7  C   UNL     1      63.397   8.999   5.418  1.00  0.00     0.309 C 
HETATM    8  O   UNL     1      62.805   8.271   6.205  1.00  0.00    -0.258 OA
BRANCH   7   9
HETATM    9  O   UNL     1      64.716   9.327   5.490  1.00  0.00    -0.321 OA
HETATM   10  C   UNL     1      65.591   8.200   5.506  1.00  0.00     0.213 C 
ENDBRANCH   7   9
ENDBRANCH   1   7
TORSDOF 2
ENDMDL
MODEL 4
REMARK VINA RESULT:      -3.7      6.936      8.003
REMARK  2 active torsions:
REMARK  status: ('A' for Active; 'I' for Inactive)
REMARK    1  A    between atoms: C_1  and  C_2 
REMARK    2  A    between atoms: C_2  and  O_8 
ROOT
HETATM    1  C   UNL     1      67.233   7.068   6.793  1.00  0.00     0.108 A 
HETATM    2  N   UNL     1      67.160   7.350   8.140  1.00  0.00    -0.361 N 
HETATM    3  C   UNL     1      67.653   5.752   6.686  1.00  0.00     0.037 A 
HETATM    4  C   UNL     1      67.525   6.252   8.874  1.00  0.00     0.088 A 
HETATM    5  C   UNL     1      67.837   5.242   7.994  1.00  0.00     0.019 A 
HETATM    6  H   UNL     1      66.885   8.215   8.521  1.00  0.00     0.165 HD
ENDROOT
BRANCH   1   7
HETATM    7  C   UNL     1      66.906   8.050   5.787  1.00  0.00     0.309 C 
HETATM    8  O   UNL     1      67.551   8.229   4.762  1.00  0.00    -0.258 OA
BRANCH   7   9
HETATM    9  O   UNL     1      65.788   8.740   6.143  1.00  0.00    -0.321 OA
HETATM   10  C   UNL     1      64.722   8.637   5.199  1.00  0.00     0.213 C 
ENDBRANCH   7   9
ENDBRANCH   1   7
TORSDOF 2
ENDMDL
MODEL 5
REMARK VINA RESULT:      -3.7      2.482      3.208
REMARK  2 active torsions:
REMARK  status: ('A' for Active; 'I' for Inactive)
REMARK    1  A    between atoms: C_1  and  C_2 
REMARK    2  A    between atoms: C_2  and  O_8 
ROOT
HETATM    1  C   UNL     1      62.409   9.884   3.798  1.00  0.00     0.108 A 
HETATM    2  N   UNL     1      62.045  11.183   3.518  1.00  0.00    -0.361 N 
HETATM    3  C   UNL     1      62.326   9.183   2.605  1.00  0.00     0.037 A 
HETATM    4  C   UNL     1      61.736  11.313   2.190  1.00  0.00     0.088 A 
HETATM    5  C   UNL     1      61.901  10.082   1.596  1.00  0.00     0.019 A 
HETATM    6  H   UNL     1      62.013  11.914   4.176  1.00  0.00     0.165 HD
ENDROOT
BRANCH   1   7
HETATM    7  C   UNL     1      62.782   9.463   5.127  1.00  0.00     0.309 C 
HETATM    8  O   UNL     1      63.292  10.196   5.965  1.00  0.00    -0.258 OA
BRANCH   7   9
HETATM    9  O   UNL     1      62.486   8.147   5.310  1.00  0.00    -0.321 OA
HETATM   10  C   UNL     1      63.537   7.399   5.920  1.00  0.00     0.213 C 
ENDBRANCH   7   9
ENDBRANCH   1   7
TORSDOF 2
ENDMDL
MODEL 6
REMARK VINA RESULT:      -3.7      3.747      4.779
REMARK  2 active torsions:
REMARK  status: ('A' for Active; 'I' for Inactive)
REMARK    1  A    between atoms: C_1  and  C_2 
REMARK    2  A    between atoms: C_2  and  O_8 
ROOT
HETATM    1  C   UNL     1      63.038   9.077   5.126  1.00  0.00     0.108 A 
HETATM    2  N   UNL     1      63.066  10.309   5.744  1.00  0.00    -0.361 N 
HETATM    3  C   UNL     1      62.420   9.263   3.900  1.00  0.00     0.037 A 
HETATM    4  C   UNL     1      62.482  11.253   4.942  1.00  0.00     0.088 A 
HETATM    5  C   UNL     1      62.070  10.630   3.786  1.00  0.00     0.019 A 
HETATM    6  H   UNL     1      63.450  10.485   6.632  1.00  0.00     0.165 HD
ENDROOT
BRANCH   1   7
HETATM    7  C   UNL     1      63.584   7.896   5.750  1.00  0.00     0.309 C 
HETATM    8  O   UNL     1      63.218   7.456   6.833  1.00  0.00    -0.258 OA
BRANCH   7   9
HETATM    9  O   UNL     1      64.553   7.349   4.966  1.00  0.00    -0.321 OA
HETATM   10  C   UNL     1      65.841   7.938   5.146  1.00  0.00     0.213 C 
ENDBRANCH   7   9
ENDBRANCH   1   7
TORSDOF 2
ENDMDL
MODEL 7
REMARK VINA RESULT:      -3.6      4.886      5.934
REMARK  2 active torsions:
REMARK  status: ('A' for Active; 'I' for Inactive)
REMARK    1  A    between atoms: C_1  and  C_2 
REMARK    2  A    between atoms: C_2  and  O_8 
ROOT
HETATM    1  C   UNL     1      65.625   8.109   5.483  1.00  0.00     0.108 A 
HETATM    2  N   UNL     1      65.707   7.693   6.795  1.00  0.00    -0.361 N 
HETATM    3  C   UNL     1      66.803   7.715   4.869  1.00  0.00     0.037 A 
HETATM    4  C   UNL     1      66.899   7.056   7.016  1.00  0.00     0.088 A 
HETATM    5  C   UNL     1      67.603   7.055   5.833  1.00  0.00     0.019 A 
HETATM    6  H   UNL     1      65.009   7.833   7.474  1.00  0.00     0.165 HD
ENDROOT
BRANCH   1   7
HETATM    7  C   UNL     1      64.474   8.815   4.975  1.00  0.00     0.309 C 
HETATM    8  O   UNL     1      63.779   8.422   4.046  1.00  0.00    -0.258 OA
BRANCH   7   9
HETATM    9  O   UNL     1      64.276   9.966   5.673  1.00  0.00    -0.321 OA
HETATM   10  C   UNL     1      63.024  10.596   5.404  1.00  0.00     0.213 C 
ENDBRANCH   7   9
ENDBRANCH   1   7
TORSDOF 2
ENDMDL
MODEL 8
REMARK VINA RESULT:      -3.5      3.475      4.273
REMARK  2 active torsions:
REMARK  status: ('A' for Active; 'I' for Inactive)
REMARK    1  A    between atoms: C_1  and  C_2 
REMARK    2  A    between atoms: C_2  and  O_8 
ROOT
HETATM    1  C   UNL     1      63.895   8.890   4.865  1.00  0.00     0.108 A 
HETATM    2  N   UNL     1      64.948   8.638   5.719  1.00  0.00    -0.361 N 
HETATM    3  C   UNL     1      63.920   7.894   3.901  1.00  0.00     0.037 A 
HETATM    4  C   UNL     1      65.628   7.520   5.315  1.00  0.00     0.088 A 
HETATM    5  C   UNL     1      65.010   7.036   4.184  1.00  0.00     0.019 A 
HETATM    6  H   UNL     1      65.178   9.183   6.505  1.00  0.00     0.165 HD
ENDROOT
BRANCH   1   7
HETATM    7  C   UNL     1      63.010  10.014   5.053  1.00  0.00     0.309 C 
HETATM    8  O   UNL     1      63.139  10.854   5.934  1.00  0.00    -0.258 OA
BRANCH   7   9
HETATM    9  O   UNL     1      62.024  10.004   4.115  1.00  0.00    -0.321 OA
HETATM   10  C   UNL     1      61.834  11.259   3.463  1.00  0.00     0.213 C 
ENDBRANCH   7   9
ENDBRANCH   1   7
TORSDOF 2
ENDMDL
MODEL 9
REMARK VINA RESULT:      -3.2      2.108      3.983
REMARK  2 active torsions:
REMARK  status: ('A' for Active; 'I' for Inactive)
REMARK    1  A    between atoms: C_1  and  C_2 
REMARK    2  A    between atoms: C_2  and  O_8 
ROOT
HETATM    1  C   UNL     1      62.193   9.499   3.030  1.00  0.00     0.108 A 
HETATM    2  N   UNL     1      61.642  10.762   2.984  1.00  0.00    -0.361 N 
HETATM    3  C   UNL     1      62.871   9.407   4.235  1.00  0.00     0.037 A 
HETATM    4  C   UNL     1      61.959  11.458   4.120  1.00  0.00     0.088 A 
HETATM    5  C   UNL     1      62.724  10.639   4.918  1.00  0.00     0.019 A 
HETATM    6  H   UNL     1      61.099  11.112   2.242  1.00  0.00     0.165 HD
ENDROOT
BRANCH   1   7
HETATM    7  C   UNL     1      62.020   8.549   1.957  1.00  0.00     0.309 C 
HETATM    8  O   UNL     1      62.578   7.461   1.903  1.00  0.00    -0.258 OA
BRANCH   7   9
HETATM    9  O   UNL     1      61.155   9.037   1.026  1.00  0.00    -0.321 OA
HETATM   10  C   UNL     1      60.162   8.098   0.614  1.00  0.00     0.213 C 
ENDBRANCH   7   9
ENDBRANCH   1   7
TORSDOF 2
ENDMDL
