MODEL 1
REMARK VINA RESULT:      -4.9      0.000      0.000
REMARK  1 active torsions:
REMARK  status: ('A' for Active; 'I' for Inactive)
REMARK    1  A    between atoms: C_3  and  C_7 
ROOT
HETATM    1  N   UNL     1      65.584   6.818   6.866  1.00  0.00    -0.354 N 
ATOM      2  HN  UNL     1      65.826   5.995   7.417  1.00  0.00     0.166 HD
HETATM    3  C   UNL     1      64.482   8.314   5.578  1.00  0.00     0.102 A 
HETATM    4  C   UNL     1      66.320   7.875   6.615  1.00  0.00     0.233 A 
HETATM    5  O   UNL     1      65.730   8.823   5.837  1.00  0.00    -0.304 OA
HETATM    6  C   UNL     1      64.410   7.089   6.209  1.00  0.00     0.127 A 
ENDROOT
BRANCH   3   7
HETATM    7  C   UNL     1      63.579   9.123   4.772  1.00  0.00    -0.001 A 
HETATM    8  C   UNL     1      63.119   8.647   3.534  1.00  0.00     0.014 A 
HETATM    9  C   UNL     1      62.242   9.406   2.755  1.00  0.00     0.001 A 
HETATM   10  C   UNL     1      61.815  10.653   3.202  1.00  0.00     0.000 A 
HETATM   11  C   UNL     1      62.262  11.142   4.426  1.00  0.00     0.001 A 
HETATM   12  C   UNL     1      63.138  10.381   5.207  1.00  0.00     0.014 A 
ENDBRANCH   3   7
TORSDOF 1
ENDMDL
MODEL 2
REMARK VINA RESULT:      -4.9      0.465      1.525
REMARK  1 active torsions:
REMARK  status: ('A' for Active; 'I' for Inactive)
REMARK    1  A    between atoms: C_3  and  C_7 
ROOT
HETATM    1  N   UNL     1      65.000   6.930   6.856  1.00  0.00    -0.354 N 
ATOM      2  HN  UNL     1      65.145   6.152   7.499  1.00  0.00     0.166 HD
HETATM    3  C   UNL     1      64.075   8.397   5.406  1.00  0.00     0.102 A 
HETATM    4  C   UNL     1      65.861   7.844   6.477  1.00  0.00     0.233 A 
HETATM    5  O   UNL     1      65.383   8.765   5.595  1.00  0.00    -0.304 OA
HETATM    6  C   UNL     1      63.858   7.274   6.178  1.00  0.00     0.127 A 
ENDROOT
BRANCH   3   7
HETATM    7  C   UNL     1      63.268   9.218   4.515  1.00  0.00    -0.001 A 
HETATM    8  C   UNL     1      62.828  10.485   4.928  1.00  0.00     0.014 A 
HETATM    9  C   UNL     1      62.063  11.291   4.080  1.00  0.00     0.001 A 
HETATM   10  C   UNL     1      61.725  10.838   2.808  1.00  0.00     0.000 A 
HETATM   11  C   UNL     1      62.150   9.583   2.382  1.00  0.00     0.001 A 
HETATM   12  C   UNL     1      62.917   8.778   3.230  1.00  0.00     0.014 A 
ENDBRANCH   3   7
TORSDOF 1
ENDMDL
MODEL 3
REMARK VINA RESULT:      -4.7      1.562      1.801
REMARK  1 active torsions:
REMARK  status: ('A' for Active; 'I' for Inactive)
REMARK    1  A    between atoms: C_3  and  C_7 
ROOT
HETATM    1  N   UNL     1      63.658   5.945   5.533  1.00  0.00    -0.354 N 
ATOM      2  HN  UNL     1      63.824   4.954   5.707  1.00  0.00     0.166 HD
HETATM    3  C   UNL     1      63.090   7.909   4.568  1.00  0.00     0.102 A 
HETATM    4  C   UNL     1      63.867   6.959   6.339  1.00  0.00     0.233 A 
HETATM    5  O   UNL     1      63.556   8.182   5.829  1.00  0.00    -0.304 OA
HETATM    6  C   UNL     1      63.162   6.541   4.401  1.00  0.00     0.127 A 
ENDROOT
BRANCH   3   7
HETATM    7  C   UNL     1      62.644   9.033   3.757  1.00  0.00    -0.001 A 
HETATM    8  C   UNL     1      62.472   8.880   2.372  1.00  0.00     0.014 A 
HETATM    9  C   UNL     1      62.032   9.946   1.583  1.00  0.00     0.001 A 
HETATM   10  C   UNL     1      61.761  11.180   2.167  1.00  0.00     0.000 A 
HETATM   11  C   UNL     1      61.928  11.350   3.538  1.00  0.00     0.001 A 
HETATM   12  C   UNL     1      62.366  10.283   4.328  1.00  0.00     0.014 A 
ENDBRANCH   3   7
TORSDOF 1
ENDMDL
MODEL 4
REMARK VINA RESULT:      -4.4      2.262      4.494
REMARK  1 active torsions:
REMARK  status: ('A' for Active; 'I' for Inactive)
REMARK    1  A    between atoms: C_3  and  C_7 
ROOT
HETATM    1  N   UNL     1      62.370  10.116   4.506  1.00  0.00    -0.354 N 
ATOM      2  HN  UNL     1      61.479  10.440   4.130  1.00  0.00     0.166 HD
HETATM    3  C   UNL     1      64.231   8.903   4.923  1.00  0.00     0.102 A 
HETATM    4  C   UNL     1      63.128  10.688   5.411  1.00  0.00     0.233 A 
HETATM    5  O   UNL     1      64.269  10.015   5.725  1.00  0.00    -0.304 OA
HETATM    6  C   UNL     1      63.065   8.976   4.189  1.00  0.00     0.127 A 
ENDROOT
BRANCH   3   7
HETATM    7  C   UNL     1      65.349   7.974   5.008  1.00  0.00    -0.001 A 
HETATM    8  C   UNL     1      65.492   6.952   4.056  1.00  0.00     0.014 A 
HETATM    9  C   UNL     1      66.567   6.061   4.117  1.00  0.00     0.001 A 
HETATM   10  C   UNL     1      67.512   6.178   5.131  1.00  0.00     0.000 A 
HETATM   11  C   UNL     1      67.385   7.184   6.086  1.00  0.00     0.001 A 
HETATM   12  C   UNL     1      66.311   8.077   6.023  1.00  0.00     0.014 A 
ENDBRANCH   3   7
TORSDOF 1
ENDMDL
MODEL 5
REMARK VINA RESULT:      -4.2      2.643      4.634
REMARK  1 active torsions:
REMARK  status: ('A' for Active; 'I' for Inactive)
REMARK    1  A    between atoms: C_3  and  C_7 
ROOT
HETATM    1  N   UNL     1      61.544  10.694   2.416  1.00  0.00    -0.354 N 
ATOM      2  HN  UNL     1      61.058  10.965   1.561  1.00  0.00     0.166 HD
HETATM    3  C   UNL     1      62.638   9.512   4.002  1.00  0.00     0.102 A 
HETATM    4  C   UNL     1      61.833  11.436   3.458  1.00  0.00     0.233 A 
HETATM    5  O   UNL     1      62.488  10.796   4.465  1.00  0.00    -0.304 OA
HETATM    6  C   UNL     1      62.053   9.465   2.753  1.00  0.00     0.127 A 
ENDROOT
BRANCH   3   7
HETATM    7  C   UNL     1      63.338   8.566   4.859  1.00  0.00    -0.001 A 
HETATM    8  C   UNL     1      64.729   8.658   5.022  1.00  0.00     0.014 A 
HETATM    9  C   UNL     1      65.414   7.765   5.851  1.00  0.00     0.001 A 
HETATM   10  C   UNL     1      64.718   6.766   6.524  1.00  0.00     0.000 A 
HETATM   11  C   UNL     1      63.338   6.658   6.372  1.00  0.00     0.001 A 
HETATM   12  C   UNL     1      62.653   7.553   5.545  1.00  0.00     0.014 A 
ENDBRANCH   3   7
TORSDOF 1
ENDMDL
MODEL 6
REMARK VINA RESULT:      -4.2      3.211      4.004
REMARK  1 active torsions:
REMARK  status: ('A' for Active; 'I' for Inactive)
REMARK    1  A    between atoms: C_3  and  C_7 
ROOT
HETATM    1  N   UNL     1      63.059   5.623   0.884  1.00  0.00    -0.354 N 
ATOM      2  HN  UNL     1      62.968   4.840   0.237  1.00  0.00     0.166 HD
HETATM    3  C   UNL     1      62.813   7.621   1.913  1.00  0.00     0.102 A 
HETATM    4  C   UNL     1      63.824   5.719   1.945  1.00  0.00     0.233 A 
HETATM    5  O   UNL     1      63.740   6.898   2.620  1.00  0.00    -0.304 OA
HETATM    6  C   UNL     1      62.410   6.832   0.855  1.00  0.00     0.127 A 
ENDROOT
BRANCH   3   7
HETATM    7  C   UNL     1      62.476   8.948   2.407  1.00  0.00    -0.001 A 
HETATM    8  C   UNL     1      62.556   9.233   3.779  1.00  0.00     0.014 A 
HETATM    9  C   UNL     1      62.249  10.506   4.267  1.00  0.00     0.001 A 
HETATM   10  C   UNL     1      61.854  11.511   3.389  1.00  0.00     0.000 A 
HETATM   11  C   UNL     1      61.767  11.247   2.025  1.00  0.00     0.001 A 
HETATM   12  C   UNL     1      62.077   9.974   1.537  1.00  0.00     0.014 A 
ENDBRANCH   3   7
TORSDOF 1
ENDMDL
MODEL 7
REMARK VINA RESULT:      -4.0      3.625      4.373
REMARK  1 active torsions:
REMARK  status: ('A' for Active; 'I' for Inactive)
REMARK    1  A    between atoms: C_3  and  C_7 
ROOT
HETATM    1  N   UNL     1      62.687   5.377   1.337  1.00  0.00    -0.354 N 
ATOM      2  HN  UNL     1      63.162   4.484   1.203  1.00  0.00     0.166 HD
HETATM    3  C   UNL     1      62.197   7.498   1.944  1.00  0.00     0.102 A 
HETATM    4  C   UNL     1      61.491   5.732   0.932  1.00  0.00     0.233 A 
HETATM    5  O   UNL     1      61.115   6.997   1.265  1.00  0.00    -0.304 OA
HETATM    6  C   UNL     1      63.146   6.497   1.983  1.00  0.00     0.127 A 
ENDROOT
BRANCH   3   7
HETATM    7  C   UNL     1      62.115   8.872   2.420  1.00  0.00    -0.001 A 
HETATM    8  C   UNL     1      61.901   9.922   1.514  1.00  0.00     0.014 A 
HETATM    9  C   UNL     1      61.807  11.244   1.957  1.00  0.00     0.001 A 
HETATM   10  C   UNL     1      61.930  11.534   3.313  1.00  0.00     0.000 A 
HETATM   11  C   UNL     1      62.145  10.506   4.226  1.00  0.00     0.001 A 
HETATM   12  C   UNL     1      62.236   9.183   3.783  1.00  0.00     0.014 A 
ENDBRANCH   3   7
TORSDOF 1
ENDMDL
MODEL 8
REMARK VINA RESULT:      -3.9     12.159     13.603
REMARK  1 active torsions:
REMARK  status: ('A' for Active; 'I' for Inactive)
REMARK    1  A    between atoms: C_3  and  C_7 
ROOT
HETATM    1  N   UNL     1      53.328   2.911  14.421  1.00  0.00    -0.354 N 
ATOM      2  HN  UNL     1      52.428   2.745  14.871  1.00  0.00     0.166 HD
HETATM    3  C   UNL     1      55.458   2.696  13.696  1.00  0.00     0.102 A 
HETATM    4  C   UNL     1      53.700   3.941  13.699  1.00  0.00     0.233 A 
HETATM    5  O   UNL     1      54.976   3.893  13.229  1.00  0.00    -0.304 OA
HETATM    6  C   UNL     1      54.443   2.112  14.425  1.00  0.00     0.127 A 
ENDROOT
BRANCH   3   7
HETATM    7  C   UNL     1      56.820   2.333  13.334  1.00  0.00    -0.001 A 
HETATM    8  C   UNL     1      57.634   1.645  14.248  1.00  0.00     0.014 A 
HETATM    9  C   UNL     1      58.940   1.278  13.910  1.00  0.00     0.001 A 
HETATM   10  C   UNL     1      59.451   1.596  12.656  1.00  0.00     0.000 A 
HETATM   11  C   UNL     1      58.659   2.281  11.737  1.00  0.00     0.001 A 
HETATM   12  C   UNL     1      57.352   2.645  12.074  1.00  0.00     0.014 A 
ENDBRANCH   3   7
TORSDOF 1
ENDMDL
MODEL 9
REMARK VINA RESULT:      -3.8      3.490      4.864
REMARK  1 active torsions:
REMARK  status: ('A' for Active; 'I' for Inactive)
REMARK    1  A    between atoms: C_3  and  C_7 
ROOT
HETATM    1  N   UNL     1      60.139   6.770   0.997  1.00  0.00    -0.354 N 
ATOM      2  HN  UNL     1      59.723   5.920   0.615  1.00  0.00     0.166 HD
HETATM    3  C   UNL     1      61.200   8.246   2.341  1.00  0.00     0.102 A 
HETATM    4  C   UNL     1      60.185   7.966   0.461  1.00  0.00     0.233 A 
HETATM    5  O   UNL     1      60.804   8.918   1.212  1.00  0.00    -0.304 OA
HETATM    6  C   UNL     1      60.783   6.938   2.196  1.00  0.00     0.127 A 
ENDROOT
BRANCH   3   7
HETATM    7  C   UNL     1      61.928   8.999   3.351  1.00  0.00    -0.001 A 
HETATM    8  C   UNL     1      62.920   8.373   4.121  1.00  0.00     0.014 A 
HETATM    9  C   UNL     1      63.636   9.086   5.086  1.00  0.00     0.001 A 
HETATM   10  C   UNL     1      63.367  10.434   5.298  1.00  0.00     0.000 A 
HETATM   11  C   UNL     1      62.384  11.072   4.546  1.00  0.00     0.001 A 
HETATM   12  C   UNL     1      61.670  10.359   3.578  1.00  0.00     0.014 A 
ENDBRANCH   3   7
TORSDOF 1
ENDMDL
