MODEL 1
REMARK VINA RESULT:      -5.4      0.000      0.000
REMARK  4 active torsions:
REMARK  status: ('A' for Active; 'I' for Inactive)
REMARK    1  A    between atoms: C_1  and  C_2 
REMARK    2  A    between atoms: C_2  and  O_10 
REMARK    3  A    between atoms: C_3  and  C_7 
REMARK    4  A    between atoms: O_10  and  C_16 
ROOT
HETATM    1  C   UNL     1      63.343   7.860   5.445  1.00  0.00     0.098 C 
HETATM    2  C   UNL     1      62.529   7.596   4.158  1.00  0.00     0.037 C 
HETATM    3  C   UNL     1      61.265   5.862   5.563  1.00  0.00    -0.030 C 
HETATM    4  C   UNL     1      62.329   5.714   6.362  1.00  0.00    -0.030 C 
HETATM    5  C   UNL     1      63.548   6.580   6.272  1.00  0.00     0.042 C 
HETATM    6  C   UNL     1      61.183   6.897   4.482  1.00  0.00     0.037 C 
ENDROOT
BRANCH   2   7
HETATM    7  C   UNL     1      62.261   8.854   3.348  1.00  0.00    -0.037 A 
HETATM    8  C   UNL     1      61.958  10.061   3.976  1.00  0.00     0.095 A 
HETATM    9  N   UNL     1      61.746  11.227   3.324  1.00  0.00    -0.375 N 
HETATM   10  C   UNL     1      61.842  11.200   1.978  1.00  0.00     0.087 A 
ATOM     11  HN  UNL     1      61.524  12.087   3.826  1.00  0.00     0.164 HD
HETATM   12  C   UNL     1      62.126  10.057   1.254  1.00  0.00     0.018 A 
HETATM   13  C   UNL     1      62.333   8.870   1.950  1.00  0.00     0.010 A 
ENDBRANCH   2   7
BRANCH   1  14
HETATM   14  C   UNL     1      64.714   8.466   5.214  1.00  0.00     0.264 C 
HETATM   15  O   UNL     1      65.076   9.505   5.756  1.00  0.00    -0.265 OA
BRANCH  14  16
HETATM   16  O   UNL     1      65.505   7.687   4.429  1.00  0.00    -0.322 OA
BRANCH  16  17
HETATM   17  C   UNL     1      66.881   7.590   4.827  1.00  0.00     0.174 C 
HETATM   18  C   UNL     1      67.200   6.197   5.339  1.00  0.00     0.034 C 
ENDBRANCH  16  17
ENDBRANCH  14  16
ENDBRANCH   1  14
TORSDOF 4
ENDMDL
MODEL 2
REMARK VINA RESULT:      -5.2      2.073      3.838
REMARK  4 active torsions:
REMARK  status: ('A' for Active; 'I' for Inactive)
REMARK    1  A    between atoms: C_1  and  C_2 
REMARK    2  A    between atoms: C_2  and  O_10 
REMARK    3  A    between atoms: C_3  and  C_7 
REMARK    4  A    between atoms: O_10  and  C_16 
ROOT
HETATM    1  C   UNL     1      63.122   6.868   5.380  1.00  0.00     0.098 C 
HETATM    2  C   UNL     1      63.524   8.346   5.176  1.00  0.00     0.037 C 
HETATM    3  C   UNL     1      65.851   7.602   5.956  1.00  0.00    -0.030 C 
HETATM    4  C   UNL     1      65.311   6.589   6.645  1.00  0.00    -0.030 C 
HETATM    5  C   UNL     1      63.860   6.226   6.566  1.00  0.00     0.042 C 
HETATM    6  C   UNL     1      65.062   8.492   5.043  1.00  0.00     0.037 C 
ENDROOT
BRANCH   2   7
HETATM    7  C   UNL     1      62.852   8.991   3.974  1.00  0.00    -0.037 A 
HETATM    8  C   UNL     1      62.200  10.217   4.089  1.00  0.00     0.095 A 
HETATM    9  N   UNL     1      61.613  10.868   3.058  1.00  0.00    -0.375 N 
HETATM   10  C   UNL     1      61.677  10.276   1.847  1.00  0.00     0.087 A 
ATOM     11  HN  UNL     1      61.144  11.764   3.190  1.00  0.00     0.164 HD
HETATM   12  C   UNL     1      62.289   9.056   1.623  1.00  0.00     0.018 A 
HETATM   13  C   UNL     1      62.878   8.406   2.702  1.00  0.00     0.010 A 
ENDBRANCH   2   7
BRANCH   1  14
HETATM   14  C   UNL     1      61.638   6.641   5.602  1.00  0.00     0.264 C 
HETATM   15  O   UNL     1      60.850   6.474   4.677  1.00  0.00    -0.265 OA
BRANCH  14  16
HETATM   16  O   UNL     1      61.314   6.551   6.919  1.00  0.00    -0.322 OA
BRANCH  16  17
HETATM   17  C   UNL     1      60.323   5.568   7.256  1.00  0.00     0.174 C 
HETATM   18  C   UNL     1      59.246   6.164   8.142  1.00  0.00     0.034 C 
ENDBRANCH  16  17
ENDBRANCH  14  16
ENDBRANCH   1  14
TORSDOF 4
ENDMDL
MODEL 3
REMARK VINA RESULT:      -5.1      2.430      3.854
REMARK  4 active torsions:
REMARK  status: ('A' for Active; 'I' for Inactive)
REMARK    1  A    between atoms: C_1  and  C_2 
REMARK    2  A    between atoms: C_2  and  O_10 
REMARK    3  A    between atoms: C_3  and  C_7 
REMARK    4  A    between atoms: O_10  and  C_16 
ROOT
HETATM    1  C   UNL     1      63.279   9.013   4.821  1.00  0.00     0.098 C 
HETATM    2  C   UNL     1      62.185   8.415   3.906  1.00  0.00     0.037 C 
HETATM    3  C   UNL     1      61.808  10.831   3.132  1.00  0.00    -0.030 C 
HETATM    4  C   UNL     1      62.278  11.293   4.298  1.00  0.00    -0.030 C 
HETATM    5  C   UNL     1      62.902  10.411   5.337  1.00  0.00     0.042 C 
HETATM    6  C   UNL     1      61.839   9.383   2.745  1.00  0.00     0.037 C 
ENDROOT
BRANCH   2   7
HETATM    7  C   UNL     1      62.556   7.056   3.335  1.00  0.00    -0.037 A 
HETATM    8  C   UNL     1      61.882   5.902   3.733  1.00  0.00     0.095 A 
HETATM    9  N   UNL     1      62.131   4.667   3.242  1.00  0.00    -0.375 N 
HETATM   10  C   UNL     1      63.096   4.566   2.304  1.00  0.00     0.087 A 
ATOM     11  HN  UNL     1      61.614   3.849   3.566  1.00  0.00     0.164 HD
HETATM   12  C   UNL     1      63.833   5.643   1.845  1.00  0.00     0.018 A 
HETATM   13  C   UNL     1      63.561   6.901   2.373  1.00  0.00     0.010 A 
ENDBRANCH   2   7
BRANCH   1  14
HETATM   14  C   UNL     1      63.620   8.167   6.034  1.00  0.00     0.264 C 
HETATM   15  O   UNL     1      62.760   7.669   6.754  1.00  0.00    -0.265 OA
BRANCH  14  16
HETATM   16  O   UNL     1      64.956   7.955   6.165  1.00  0.00    -0.322 OA
BRANCH  16  17
HETATM   17  C   UNL     1      65.458   6.741   5.584  1.00  0.00     0.174 C 
HETATM   18  C   UNL     1      66.544   7.035   4.566  1.00  0.00     0.034 C 
ENDBRANCH  16  17
ENDBRANCH  14  16
ENDBRANCH   1  14
TORSDOF 4
ENDMDL
MODEL 4
REMARK VINA RESULT:      -5.0      2.538      4.335
REMARK  4 active torsions:
REMARK  status: ('A' for Active; 'I' for Inactive)
REMARK    1  A    between atoms: C_1  and  C_2 
REMARK    2  A    between atoms: C_2  and  O_10 
REMARK    3  A    between atoms: C_3  and  C_7 
REMARK    4  A    between atoms: O_10  and  C_16 
ROOT
HETATM    1  C   UNL     1      63.287   8.855   3.831  1.00  0.00     0.098 C 
HETATM    2  C   UNL     1      62.595   7.567   3.330  1.00  0.00     0.037 C 
HETATM    3  C   UNL     1      61.674   9.044   1.447  1.00  0.00    -0.030 C 
HETATM    4  C   UNL     1      61.775  10.126   2.228  1.00  0.00    -0.030 C 
HETATM    5  C   UNL     1      62.434  10.107   3.574  1.00  0.00     0.042 C 
HETATM    6  C   UNL     1      62.194   7.693   1.837  1.00  0.00     0.037 C 
ENDROOT
BRANCH   2   7
HETATM    7  C   UNL     1      63.442   6.318   3.520  1.00  0.00    -0.037 A 
HETATM    8  C   UNL     1      63.063   5.324   4.420  1.00  0.00     0.095 A 
HETATM    9  N   UNL     1      63.744   4.171   4.615  1.00  0.00    -0.375 N 
HETATM   10  C   UNL     1      64.859   3.989   3.876  1.00  0.00     0.087 A 
ATOM     11  HN  UNL     1      63.430   3.472   5.288  1.00  0.00     0.164 HD
HETATM   12  C   UNL     1      65.331   4.914   2.963  1.00  0.00     0.018 A 
HETATM   13  C   UNL     1      64.615   6.094   2.789  1.00  0.00     0.010 A 
ENDBRANCH   2   7
BRANCH   1  14
HETATM   14  C   UNL     1      63.640   8.851   5.307  1.00  0.00     0.264 C 
HETATM   15  O   UNL     1      62.823   8.573   6.179  1.00  0.00    -0.265 OA
BRANCH  14  16
HETATM   16  O   UNL     1      64.958   9.092   5.531  1.00  0.00    -0.322 OA
BRANCH  16  17
HETATM   17  C   UNL     1      65.749   7.953   5.905  1.00  0.00     0.174 C 
HETATM   18  C   UNL     1      66.989   7.846   5.036  1.00  0.00     0.034 C 
ENDBRANCH  16  17
ENDBRANCH  14  16
ENDBRANCH   1  14
TORSDOF 4
ENDMDL
MODEL 5
REMARK VINA RESULT:      -4.9      2.825      4.803
REMARK  4 active torsions:
REMARK  status: ('A' for Active; 'I' for Inactive)
REMARK    1  A    between atoms: C_1  and  C_2 
REMARK    2  A    between atoms: C_2  and  O_10 
REMARK    3  A    between atoms: C_3  and  C_7 
REMARK    4  A    between atoms: O_10  and  C_16 
ROOT
HETATM    1  C   UNL     1      64.189   8.031   4.352  1.00  0.00     0.098 C 
HETATM    2  C   UNL     1      63.863   6.601   3.864  1.00  0.00     0.037 C 
HETATM    3  C   UNL     1      62.588   7.763   1.967  1.00  0.00    -0.030 C 
HETATM    4  C   UNL     1      62.398   8.841   2.737  1.00  0.00    -0.030 C 
HETATM    5  C   UNL     1      63.035   9.010   4.082  1.00  0.00     0.042 C 
HETATM    6  C   UNL     1      63.446   6.601   2.371  1.00  0.00     0.037 C 
ENDROOT
BRANCH   2   7
HETATM    7  C   UNL     1      65.009   5.622   4.066  1.00  0.00    -0.037 A 
HETATM    8  C   UNL     1      64.957   4.652   5.066  1.00  0.00     0.095 A 
HETATM    9  N   UNL     1      65.920   3.726   5.280  1.00  0.00    -0.375 N 
HETATM   10  C   UNL     1      66.991   3.758   4.460  1.00  0.00     0.087 A 
ATOM     11  HN  UNL     1      65.840   3.036   6.027  1.00  0.00     0.164 HD
HETATM   12  C   UNL     1      67.150   4.683   3.444  1.00  0.00     0.018 A 
HETATM   13  C   UNL     1      66.148   5.629   3.251  1.00  0.00     0.010 A 
ENDBRANCH   2   7
BRANCH   1  14
HETATM   14  C   UNL     1      64.527   8.135   5.827  1.00  0.00     0.264 C 
HETATM   15  O   UNL     1      63.831   7.628   6.701  1.00  0.00    -0.265 OA
BRANCH  14  16
HETATM   16  O   UNL     1      65.714   8.759   6.050  1.00  0.00    -0.322 OA
BRANCH  16  17
HETATM   17  C   UNL     1      66.802   7.912   6.453  1.00  0.00     0.174 C 
HETATM   18  C   UNL     1      67.873   7.857   5.380  1.00  0.00     0.034 C 
ENDBRANCH  16  17
ENDBRANCH  14  16
ENDBRANCH   1  14
TORSDOF 4
ENDMDL
MODEL 6
REMARK VINA RESULT:      -4.8      1.199      1.776
REMARK  4 active torsions:
REMARK  status: ('A' for Active; 'I' for Inactive)
REMARK    1  A    between atoms: C_1  and  C_2 
REMARK    2  A    between atoms: C_2  and  O_10 
REMARK    3  A    between atoms: C_3  and  C_7 
REMARK    4  A    between atoms: O_10  and  C_16 
ROOT
HETATM    1  C   UNL     1      63.457   7.132   5.678  1.00  0.00     0.098 C 
HETATM    2  C   UNL     1      62.417   7.310   4.549  1.00  0.00     0.037 C 
HETATM    3  C   UNL     1      61.086   5.492   5.775  1.00  0.00    -0.030 C 
HETATM    4  C   UNL     1      62.215   5.001   6.301  1.00  0.00    -0.030 C 
HETATM    5  C   UNL     1      63.546   5.675   6.159  1.00  0.00     0.042 C 
HETATM    6  C   UNL     1      61.031   6.760   4.976  1.00  0.00     0.037 C 
ENDROOT
BRANCH   2   7
HETATM    7  C   UNL     1      62.267   8.752   4.093  1.00  0.00    -0.037 A 
HETATM    8  C   UNL     1      61.795   9.056   2.817  1.00  0.00     0.095 A 
HETATM    9  N   UNL     1      61.600  10.313   2.355  1.00  0.00    -0.375 N 
HETATM   10  C   UNL     1      61.884  11.325   3.202  1.00  0.00     0.087 A 
ATOM     11  HN  UNL     1      61.255  10.488   1.412  1.00  0.00     0.164 HD
HETATM   12  C   UNL     1      62.368  11.137   4.484  1.00  0.00     0.018 A 
HETATM   13  C   UNL     1      62.565   9.834   4.930  1.00  0.00     0.010 A 
ENDBRANCH   2   7
BRANCH   1  14
HETATM   14  C   UNL     1      64.865   7.568   5.316  1.00  0.00     0.264 C 
HETATM   15  O   UNL     1      65.351   7.373   4.206  1.00  0.00    -0.265 OA
BRANCH  14  16
HETATM   16  O   UNL     1      65.469   8.267   6.312  1.00  0.00    -0.322 OA
BRANCH  16  17
HETATM   17  C   UNL     1      66.759   7.787   6.722  1.00  0.00     0.174 C 
HETATM   18  C   UNL     1      66.648   6.929   7.969  1.00  0.00     0.034 C 
ENDBRANCH  16  17
ENDBRANCH  14  16
ENDBRANCH   1  14
TORSDOF 4
ENDMDL
MODEL 7
REMARK VINA RESULT:      -4.7      3.057      4.879
REMARK  4 active torsions:
REMARK  status: ('A' for Active; 'I' for Inactive)
REMARK    1  A    between atoms: C_1  and  C_2 
REMARK    2  A    between atoms: C_2  and  O_10 
REMARK    3  A    between atoms: C_3  and  C_7 
REMARK    4  A    between atoms: O_10  and  C_16 
ROOT
HETATM    1  C   UNL     1      60.089   7.636   2.572  1.00  0.00     0.098 C 
HETATM    2  C   UNL     1      61.619   7.804   2.705  1.00  0.00     0.037 C 
HETATM    3  C   UNL     1      61.687   7.258   0.200  1.00  0.00    -0.030 C 
HETATM    4  C   UNL     1      60.541   6.574   0.305  1.00  0.00    -0.030 C 
HETATM    5  C   UNL     1      59.713   6.548   1.554  1.00  0.00     0.042 C 
HETATM    6  C   UNL     1      62.275   8.059   1.323  1.00  0.00     0.037 C 
ENDROOT
BRANCH   2   7
HETATM    7  C   UNL     1      62.020   8.914   3.665  1.00  0.00    -0.037 A 
HETATM    8  C   UNL     1      62.696   8.629   4.850  1.00  0.00     0.095 A 
HETATM    9  N   UNL     1      63.117   9.564   5.732  1.00  0.00    -0.375 N 
HETATM   10  C   UNL     1      62.858  10.853   5.424  1.00  0.00     0.087 A 
ATOM     11  HN  UNL     1      63.606   9.308   6.589  1.00  0.00     0.164 HD
HETATM   12  C   UNL     1      62.185  11.247   4.282  1.00  0.00     0.018 A 
HETATM   13  C   UNL     1      61.758  10.263   3.396  1.00  0.00     0.010 A 
ENDBRANCH   2   7
BRANCH   1  14
HETATM   14  C   UNL     1      59.374   7.300   3.868  1.00  0.00     0.264 C 
HETATM   15  O   UNL     1      58.346   7.868   4.221  1.00  0.00    -0.265 OA
BRANCH  14  16
HETATM   16  O   UNL     1      59.943   6.254   4.523  1.00  0.00    -0.322 OA
BRANCH  16  17
HETATM   17  C   UNL     1      59.451   6.002   5.849  1.00  0.00     0.174 C 
HETATM   18  C   UNL     1      60.588   5.965   6.852  1.00  0.00     0.034 C 
ENDBRANCH  16  17
ENDBRANCH  14  16
ENDBRANCH   1  14
TORSDOF 4
ENDMDL
MODEL 8
REMARK VINA RESULT:      -4.6      2.644      4.862
REMARK  4 active torsions:
REMARK  status: ('A' for Active; 'I' for Inactive)
REMARK    1  A    between atoms: C_1  and  C_2 
REMARK    2  A    between atoms: C_2  and  O_10 
REMARK    3  A    between atoms: C_3  and  C_7 
REMARK    4  A    between atoms: O_10  and  C_16 
ROOT
HETATM    1  C   UNL     1      62.942   7.519   4.235  1.00  0.00     0.098 C 
HETATM    2  C   UNL     1      64.089   8.469   4.652  1.00  0.00     0.037 C 
HETATM    3  C   UNL     1      62.353  10.339   4.395  1.00  0.00    -0.030 C 
HETATM    4  C   UNL     1      61.666   9.599   3.516  1.00  0.00    -0.030 C 
HETATM    5  C   UNL     1      61.996   8.169   3.213  1.00  0.00     0.042 C 
HETATM    6  C   UNL     1      63.534   9.824   5.162  1.00  0.00     0.037 C 
ENDROOT
BRANCH   2   7
HETATM    7  C   UNL     1      65.009   7.873   5.706  1.00  0.00    -0.037 A 
HETATM    8  C   UNL     1      66.323   8.316   5.846  1.00  0.00     0.095 A 
HETATM    9  N   UNL     1      67.186   7.861   6.783  1.00  0.00    -0.375 N 
HETATM   10  C   UNL     1      66.724   6.918   7.630  1.00  0.00     0.087 A 
ATOM     11  HN  UNL     1      68.141   8.214   6.845  1.00  0.00     0.164 HD
HETATM   12  C   UNL     1      65.443   6.399   7.574  1.00  0.00     0.018 A 
HETATM   13  C   UNL     1      64.579   6.881   6.595  1.00  0.00     0.010 A 
ENDBRANCH   2   7
BRANCH   1  14
HETATM   14  C   UNL     1      63.398   6.198   3.644  1.00  0.00     0.264 C 
HETATM   15  O   UNL     1      62.814   5.141   3.863  1.00  0.00    -0.265 OA
BRANCH  14  16
HETATM   16  O   UNL     1      64.445   6.340   2.790  1.00  0.00    -0.322 OA
BRANCH  16  17
HETATM   17  C   UNL     1      65.320   5.208   2.676  1.00  0.00     0.174 C 
HETATM   18  C   UNL     1      66.622   5.451   3.417  1.00  0.00     0.034 C 
ENDBRANCH  16  17
ENDBRANCH  14  16
ENDBRANCH   1  14
TORSDOF 4
ENDMDL
MODEL 9
REMARK VINA RESULT:      -4.6      1.884      3.931
REMARK  4 active torsions:
REMARK  status: ('A' for Active; 'I' for Inactive)
REMARK    1  A    between atoms: C_1  and  C_2 
REMARK    2  A    between atoms: C_2  and  O_10 
REMARK    3  A    between atoms: C_3  and  C_7 
REMARK    4  A    between atoms: O_10  and  C_16 
ROOT
HETATM    1  C   UNL     1      63.867   6.541   5.499  1.00  0.00     0.098 C 
HETATM    2  C   UNL     1      64.416   7.985   5.429  1.00  0.00     0.037 C 
HETATM    3  C   UNL     1      66.727   6.877   5.329  1.00  0.00    -0.030 C 
HETATM    4  C   UNL     1      66.255   5.802   5.972  1.00  0.00    -0.030 C 
HETATM    5  C   UNL     1      64.802   5.604   6.280  1.00  0.00     0.042 C 
HETATM    6  C   UNL     1      65.859   8.006   4.860  1.00  0.00     0.037 C 
ENDROOT
BRANCH   2   7
HETATM    7  C   UNL     1      63.539   8.922   4.614  1.00  0.00    -0.037 A 
HETATM    8  C   UNL     1      63.149   8.593   3.317  1.00  0.00     0.095 A 
HETATM    9  N   UNL     1      62.341   9.357   2.547  1.00  0.00    -0.375 N 
HETATM   10  C   UNL     1      61.891  10.508   3.089  1.00  0.00     0.087 A 
ATOM     11  HN  UNL     1      62.084   9.077   1.601  1.00  0.00     0.164 HD
HETATM   12  C   UNL     1      62.225  10.936   4.362  1.00  0.00     0.018 A 
HETATM   13  C   UNL     1      63.063  10.133   5.129  1.00  0.00     0.010 A 
ENDBRANCH   2   7
BRANCH   1  14
HETATM   14  C   UNL     1      62.490   6.418   6.123  1.00  0.00     0.264 C 
HETATM   15  O   UNL     1      62.108   7.153   7.029  1.00  0.00    -0.265 OA
BRANCH  14  16
HETATM   16  O   UNL     1      61.717   5.484   5.508  1.00  0.00    -0.322 OA
BRANCH  16  17
HETATM   17  C   UNL     1      60.801   5.980   4.519  1.00  0.00     0.174 C 
HETATM   18  C   UNL     1      59.393   6.062   5.078  1.00  0.00     0.034 C 
ENDBRANCH  16  17
ENDBRANCH  14  16
ENDBRANCH   1  14
TORSDOF 4
ENDMDL
