MODEL 1
REMARK VINA RESULT:      -4.8      0.000      0.000
REMARK  2 active torsions:
REMARK  status: ('A' for Active; 'I' for Inactive)
REMARK    1  A    between atoms: C_2  and  C_4 
REMARK    2  A    between atoms: C_3  and  C_8 
ROOT
HETATM    1  S   UNL     1      63.597   9.639   5.379  1.00  0.00    -0.086 SA
HETATM    2  C   UNL     1      64.123   8.040   5.055  1.00  0.00     0.022 A 
HETATM    3  C   UNL     1      62.774   9.777   3.889  1.00  0.00     0.051 A 
HETATM    4  C   UNL     1      63.640   7.608   3.834  1.00  0.00     0.021 A 
HETATM    5  C   UNL     1      62.867   8.603   3.164  1.00  0.00     0.024 A 
ENDROOT
BRANCH   2   6
HETATM    6  C   UNL     1      64.972   7.332   5.985  1.00  0.00     0.021 A 
HETATM    7  S   UNL     1      66.542   7.907   6.382  1.00  0.00    -0.101 SA
HETATM    8  C   UNL     1      66.808   6.640   7.494  1.00  0.00     0.050 A 
HETATM    9  C   UNL     1      65.740   5.776   7.558  1.00  0.00     0.008 A 
HETATM   10  C   UNL     1      64.684   6.172   6.686  1.00  0.00     0.021 A 
ENDBRANCH   2   6
BRANCH   3  11
HETATM   11  C   UNL     1      62.084  10.999   3.496  1.00  0.00     0.162 C 
HETATM   12  O   UNL     1      61.771  11.867   4.313  1.00  0.00    -0.292 OA
HETATM   13  C   UNL     1      61.743  11.199   2.035  1.00  0.00     0.097 C 
ENDBRANCH   3  11
TORSDOF 2
ENDMDL
MODEL 2
REMARK VINA RESULT:      -4.6      2.360      5.797
REMARK  2 active torsions:
REMARK  status: ('A' for Active; 'I' for Inactive)
REMARK    1  A    between atoms: C_2  and  C_4 
REMARK    2  A    between atoms: C_3  and  C_8 
ROOT
HETATM    1  S   UNL     1      64.733   8.362   5.137  1.00  0.00    -0.086 SA
HETATM    2  C   UNL     1      63.109   8.262   4.599  1.00  0.00     0.022 A 
HETATM    3  C   UNL     1      64.530   7.126   6.298  1.00  0.00     0.051 A 
HETATM    4  C   UNL     1      62.433   7.267   5.280  1.00  0.00     0.021 A 
HETATM    5  C   UNL     1      63.246   6.615   6.255  1.00  0.00     0.024 A 
ENDROOT
BRANCH   2   6
HETATM    6  C   UNL     1      62.603   9.156   3.583  1.00  0.00     0.021 A 
HETATM    7  S   UNL     1      62.168  10.777   3.952  1.00  0.00    -0.101 SA
HETATM    8  C   UNL     1      61.776  11.121   2.327  1.00  0.00     0.050 A 
HETATM    9  C   UNL     1      61.947  10.028   1.511  1.00  0.00     0.008 A 
HETATM   10  C   UNL     1      62.420   8.894   2.235  1.00  0.00     0.021 A 
ENDBRANCH   2   6
BRANCH   3  11
HETATM   11  C   UNL     1      65.610   6.714   7.186  1.00  0.00     0.162 C 
HETATM   12  O   UNL     1      66.443   7.512   7.622  1.00  0.00    -0.292 OA
HETATM   13  C   UNL     1      65.707   5.255   7.578  1.00  0.00     0.097 C 
ENDBRANCH   3  11
TORSDOF 2
ENDMDL
MODEL 3
REMARK VINA RESULT:      -4.6      2.828      6.062
REMARK  2 active torsions:
REMARK  status: ('A' for Active; 'I' for Inactive)
REMARK    1  A    between atoms: C_2  and  C_4 
REMARK    2  A    between atoms: C_3  and  C_8 
ROOT
HETATM    1  S   UNL     1      64.354   6.779   6.582  1.00  0.00    -0.086 SA
HETATM    2  C   UNL     1      64.741   8.030   5.476  1.00  0.00     0.022 A 
HETATM    3  C   UNL     1      65.969   6.613   7.113  1.00  0.00     0.051 A 
HETATM    4  C   UNL     1      66.087   8.338   5.543  1.00  0.00     0.021 A 
HETATM    5  C   UNL     1      66.792   7.526   6.481  1.00  0.00     0.024 A 
ENDROOT
BRANCH   2   6
HETATM    6  C   UNL     1      63.731   8.604   4.617  1.00  0.00     0.021 A 
HETATM    7  S   UNL     1      62.915  10.056   5.039  1.00  0.00    -0.101 SA
HETATM    8  C   UNL     1      62.024  10.068   3.583  1.00  0.00     0.050 A 
HETATM    9  C   UNL     1      62.315   8.983   2.791  1.00  0.00     0.008 A 
HETATM   10  C   UNL     1      63.295   8.137   3.388  1.00  0.00     0.021 A 
ENDBRANCH   2   6
BRANCH   3  11
HETATM   11  C   UNL     1      66.359   5.619   8.105  1.00  0.00     0.162 C 
HETATM   12  O   UNL     1      65.767   4.544   8.226  1.00  0.00    -0.292 OA
HETATM   13  C   UNL     1      67.528   5.926   9.016  1.00  0.00     0.097 C 
ENDBRANCH   3  11
TORSDOF 2
ENDMDL
MODEL 4
REMARK VINA RESULT:      -4.2      2.146      2.883
REMARK  2 active torsions:
REMARK  status: ('A' for Active; 'I' for Inactive)
REMARK    1  A    between atoms: C_2  and  C_4 
REMARK    2  A    between atoms: C_3  and  C_8 
ROOT
HETATM    1  S   UNL     1      63.746   6.575   6.111  1.00  0.00    -0.086 SA
HETATM    2  C   UNL     1      65.341   7.084   6.476  1.00  0.00     0.022 A 
HETATM    3  C   UNL     1      63.459   7.892   5.062  1.00  0.00     0.051 A 
HETATM    4  C   UNL     1      65.658   8.230   5.772  1.00  0.00     0.021 A 
HETATM    5  C   UNL     1      64.580   8.695   4.961  1.00  0.00     0.024 A 
ENDROOT
BRANCH   2   6
HETATM    6  C   UNL     1      66.156   6.359   7.422  1.00  0.00     0.021 A 
HETATM    7  S   UNL     1      66.205   4.641   7.433  1.00  0.00    -0.101 SA
HETATM    8  C   UNL     1      67.355   4.605   8.693  1.00  0.00     0.050 A 
HETATM    9  C   UNL     1      67.691   5.867   9.123  1.00  0.00     0.008 A 
HETATM   10  C   UNL     1      66.997   6.878   8.393  1.00  0.00     0.021 A 
ENDBRANCH   2   6
BRANCH   3  11
HETATM   11  C   UNL     1      62.178   8.084   4.393  1.00  0.00     0.162 C 
HETATM   12  O   UNL     1      61.266   7.259   4.472  1.00  0.00    -0.292 OA
HETATM   13  C   UNL     1      61.971   9.340   3.574  1.00  0.00     0.097 C 
ENDBRANCH   3  11
TORSDOF 2
ENDMDL
MODEL 5
REMARK VINA RESULT:      -4.2      2.639      5.752
REMARK  2 active torsions:
REMARK  status: ('A' for Active; 'I' for Inactive)
REMARK    1  A    between atoms: C_2  and  C_4 
REMARK    2  A    between atoms: C_3  and  C_8 
ROOT
HETATM    1  S   UNL     1      64.017   8.514   4.646  1.00  0.00    -0.086 SA
HETATM    2  C   UNL     1      63.604   7.529   3.306  1.00  0.00     0.022 A 
HETATM    3  C   UNL     1      65.402   7.590   5.026  1.00  0.00     0.051 A 
HETATM    4  C   UNL     1      64.539   6.525   3.134  1.00  0.00     0.021 A 
HETATM    5  C   UNL     1      65.571   6.559   4.120  1.00  0.00     0.024 A 
ENDROOT
BRANCH   2   6
HETATM    6  C   UNL     1      62.407   7.780   2.537  1.00  0.00     0.021 A 
HETATM    7  S   UNL     1      60.922   6.997   2.908  1.00  0.00    -0.101 SA
HETATM    8  C   UNL     1      60.086   7.834   1.677  1.00  0.00     0.050 A 
HETATM    9  C   UNL     1      60.911   8.681   0.976  1.00  0.00     0.008 A 
HETATM   10  C   UNL     1      62.249   8.647   1.468  1.00  0.00     0.021 A 
ENDBRANCH   2   6
BRANCH   3  11
HETATM   11  C   UNL     1      66.251   7.901   6.169  1.00  0.00     0.162 C 
HETATM   12  O   UNL     1      66.330   9.039   6.637  1.00  0.00    -0.292 OA
HETATM   13  C   UNL     1      67.061   6.786   6.794  1.00  0.00     0.097 C 
ENDBRANCH   3  11
TORSDOF 2
ENDMDL
MODEL 6
REMARK VINA RESULT:      -4.1      2.000      2.373
REMARK  2 active torsions:
REMARK  status: ('A' for Active; 'I' for Inactive)
REMARK    1  A    between atoms: C_2  and  C_4 
REMARK    2  A    between atoms: C_3  and  C_8 
ROOT
HETATM    1  S   UNL     1      63.535   7.407   3.491  1.00  0.00    -0.086 SA
HETATM    2  C   UNL     1      64.048   8.234   4.901  1.00  0.00     0.022 A 
HETATM    3  C   UNL     1      62.451   8.646   3.037  1.00  0.00     0.051 A 
HETATM    4  C   UNL     1      63.419   9.461   5.000  1.00  0.00     0.021 A 
HETATM    5  C   UNL     1      62.502   9.698   3.932  1.00  0.00     0.024 A 
ENDROOT
BRANCH   2   6
HETATM    6  C   UNL     1      64.995   7.636   5.813  1.00  0.00     0.021 A 
HETATM    7  S   UNL     1      64.668   6.140   6.594  1.00  0.00    -0.101 SA
HETATM    8  C   UNL     1      66.190   6.122   7.365  1.00  0.00     0.050 A 
HETATM    9  C   UNL     1      66.936   7.236   7.061  1.00  0.00     0.008 A 
HETATM   10  C   UNL     1      66.247   8.110   6.170  1.00  0.00     0.021 A 
ENDBRANCH   2   6
BRANCH   3  11
HETATM   11  C   UNL     1      61.611   8.543   1.851  1.00  0.00     0.162 C 
HETATM   12  O   UNL     1      60.411   8.269   1.917  1.00  0.00    -0.292 OA
HETATM   13  C   UNL     1      62.242   8.778   0.495  1.00  0.00     0.097 C 
ENDBRANCH   3  11
TORSDOF 2
ENDMDL
MODEL 7
REMARK VINA RESULT:      -3.9      2.856      3.302
REMARK  2 active torsions:
REMARK  status: ('A' for Active; 'I' for Inactive)
REMARK    1  A    between atoms: C_2  and  C_4 
REMARK    2  A    between atoms: C_3  and  C_8 
ROOT
HETATM    1  S   UNL     1      61.301   7.847   4.073  1.00  0.00    -0.086 SA
HETATM    2  C   UNL     1      62.190   7.220   5.397  1.00  0.00     0.022 A 
HETATM    3  C   UNL     1      62.236   9.274   3.991  1.00  0.00     0.051 A 
HETATM    4  C   UNL     1      63.214   8.081   5.746  1.00  0.00     0.021 A 
HETATM    5  C   UNL     1      63.242   9.259   4.941  1.00  0.00     0.024 A 
ENDROOT
BRANCH   2   6
HETATM    6  C   UNL     1      61.826   5.964   6.012  1.00  0.00     0.021 A 
HETATM    7  S   UNL     1      62.825   4.574   5.870  1.00  0.00    -0.101 SA
HETATM    8  C   UNL     1      61.792   3.637   6.854  1.00  0.00     0.050 A 
HETATM    9  C   UNL     1      60.692   4.349   7.273  1.00  0.00     0.008 A 
HETATM   10  C   UNL     1      60.709   5.688   6.785  1.00  0.00     0.021 A 
ENDBRANCH   2   6
BRANCH   3  11
HETATM   11  C   UNL     1      61.958  10.327   3.024  1.00  0.00     0.162 C 
HETATM   12  O   UNL     1      61.724  11.488   3.366  1.00  0.00    -0.292 OA
HETATM   13  C   UNL     1      61.955   9.975   1.552  1.00  0.00     0.097 C 
ENDBRANCH   3  11
TORSDOF 2
ENDMDL
MODEL 8
REMARK VINA RESULT:      -3.9      3.210      5.825
REMARK  2 active torsions:
REMARK  status: ('A' for Active; 'I' for Inactive)
REMARK    1  A    between atoms: C_2  and  C_4 
REMARK    2  A    between atoms: C_3  and  C_8 
ROOT
HETATM    1  S   UNL     1      64.229   6.492   6.528  1.00  0.00    -0.086 SA
HETATM    2  C   UNL     1      63.772   7.623   5.324  1.00  0.00     0.022 A 
HETATM    3  C   UNL     1      65.814   7.115   6.653  1.00  0.00     0.051 A 
HETATM    4  C   UNL     1      64.814   8.489   5.050  1.00  0.00     0.021 A 
HETATM    5  C   UNL     1      65.986   8.199   5.811  1.00  0.00     0.024 A 
ENDROOT
BRANCH   2   6
HETATM    6  C   UNL     1      62.460   7.581   4.721  1.00  0.00     0.021 A 
HETATM    7  S   UNL     1      61.899   8.848   3.704  1.00  0.00    -0.101 SA
HETATM    8  C   UNL     1      60.425   8.046   3.390  1.00  0.00     0.050 A 
HETATM    9  C   UNL     1      60.337   6.846   4.056  1.00  0.00     0.008 A 
HETATM   10  C   UNL     1      61.508   6.580   4.826  1.00  0.00     0.021 A 
ENDBRANCH   2   6
BRANCH   3  11
HETATM   11  C   UNL     1      66.805   6.533   7.549  1.00  0.00     0.162 C 
HETATM   12  O   UNL     1      67.908   6.153   7.150  1.00  0.00    -0.292 OA
HETATM   13  C   UNL     1      66.460   6.392   9.016  1.00  0.00     0.097 C 
ENDBRANCH   3  11
TORSDOF 2
ENDMDL
MODEL 9
REMARK VINA RESULT:      -3.8      2.389      2.588
REMARK  2 active torsions:
REMARK  status: ('A' for Active; 'I' for Inactive)
REMARK    1  A    between atoms: C_2  and  C_4 
REMARK    2  A    between atoms: C_3  and  C_8 
ROOT
HETATM    1  S   UNL     1      63.555   7.441   3.363  1.00  0.00    -0.086 SA
HETATM    2  C   UNL     1      64.775   7.171   4.535  1.00  0.00     0.022 A 
HETATM    3  C   UNL     1      63.180   8.995   3.965  1.00  0.00     0.051 A 
HETATM    4  C   UNL     1      64.915   8.276   5.354  1.00  0.00     0.021 A 
HETATM    5  C   UNL     1      64.001   9.323   5.028  1.00  0.00     0.024 A 
ENDROOT
BRANCH   2   6
HETATM    6  C   UNL     1      65.489   5.917   4.592  1.00  0.00     0.021 A 
HETATM    7  S   UNL     1      65.074   4.601   3.567  1.00  0.00    -0.101 SA
HETATM    8  C   UNL     1      66.337   3.628   4.178  1.00  0.00     0.050 A 
HETATM    9  C   UNL     1      67.056   4.270   5.158  1.00  0.00     0.008 A 
HETATM   10  C   UNL     1      66.565   5.587   5.400  1.00  0.00     0.021 A 
ENDBRANCH   2   6
BRANCH   3  11
HETATM   11  C   UNL     1      62.122   9.814   3.387  1.00  0.00     0.162 C 
HETATM   12  O   UNL     1      61.483  10.628   4.056  1.00  0.00    -0.292 OA
HETATM   13  C   UNL     1      61.802   9.651   1.917  1.00  0.00     0.097 C 
ENDBRANCH   3  11
TORSDOF 2
ENDMDL
