MODEL 1
REMARK VINA RESULT:      -5.4      0.000      0.000
REMARK  2 active torsions:
REMARK  status: ('A' for Active; 'I' for Inactive)
REMARK    1  A    between atoms: C_2  and  C_8 
REMARK    2  A    between atoms: C_13  and  O_16 
ROOT
HETATM    1  C   UNL     1      62.365   8.337   3.140  1.00  0.00    -0.010 A 
HETATM    2  C   UNL     1      62.477   8.843   4.564  1.00  0.00     0.253 C 
HETATM    3  C   UNL     1      62.190   9.199   2.070  1.00  0.00    -0.007 A 
HETATM    4  S   UNL     1      62.100   8.410   0.570  1.00  0.00    -0.106 SA
HETATM    5  N   UNL     1      62.668  10.308   4.600  1.00  0.00    -0.062 N 
HETATM    6  C   UNL     1      62.313   6.975   2.691  1.00  0.00     0.018 A 
HETATM    7  C   UNL     1      62.199   6.877   1.321  1.00  0.00     0.051 A 
HETATM    8  C   UNL     1      62.096  10.683   2.211  1.00  0.00     0.074 C 
HETATM    9  C   UNL     1      61.774  11.020   3.680  1.00  0.00     0.238 C 
HETATM   10  H   UNL     1      63.633  10.517   4.344  1.00  0.00     0.278 HD
HETATM   11  H   UNL     1      62.451  10.623   5.545  1.00  0.00     0.278 HD
ENDROOT
BRANCH   2  12
HETATM   12  C   UNL     1      63.674   8.157   5.206  1.00  0.00    -0.023 A 
HETATM   13  C   UNL     1      64.993   8.564   4.937  1.00  0.00     0.012 A 
HETATM   14  C   UNL     1      66.085   7.982   5.595  1.00  0.00     0.037 A 
HETATM   15  C   UNL     1      65.871   6.988   6.549  1.00  0.00     0.068 A 
HETATM   16  C   UNL     1      64.568   6.582   6.836  1.00  0.00     0.037 A 
HETATM   17  C   UNL     1      63.478   7.151   6.167  1.00  0.00     0.012 A 
BRANCH  15  18
HETATM   18  O   UNL     1      66.845   6.386   7.298  1.00  0.00    -0.356 OA
HETATM   19  C   UNL     1      66.759   6.586   8.704  1.00  0.00     0.210 C 
ENDBRANCH  15  18
ENDBRANCH   2  12
TORSDOF 2
ENDMDL
MODEL 2
REMARK VINA RESULT:      -5.2      3.633      6.512
REMARK  2 active torsions:
REMARK  status: ('A' for Active; 'I' for Inactive)
REMARK    1  A    between atoms: C_2  and  C_8 
REMARK    2  A    between atoms: C_13  and  O_16 
ROOT
HETATM    1  C   UNL     1      67.201   5.442   6.455  1.00  0.00    -0.010 A 
HETATM    2  C   UNL     1      66.873   6.839   6.941  1.00  0.00     0.253 C 
HETATM    3  C   UNL     1      67.575   4.434   7.328  1.00  0.00    -0.007 A 
HETATM    4  S   UNL     1      67.886   2.951   6.561  1.00  0.00    -0.106 SA
HETATM    5  N   UNL     1      66.723   6.875   8.410  1.00  0.00    -0.062 N 
HETATM    6  C   UNL     1      67.285   4.977   5.100  1.00  0.00     0.018 A 
HETATM    7  C   UNL     1      67.619   3.642   5.020  1.00  0.00     0.051 A 
HETATM    8  C   UNL     1      67.690   4.620   8.805  1.00  0.00     0.074 C 
HETATM    9  C   UNL     1      67.776   6.129   9.107  1.00  0.00     0.238 C 
HETATM   10  H   UNL     1      65.819   6.470   8.656  1.00  0.00     0.278 HD
HETATM   11  H   UNL     1      66.791   7.850   8.702  1.00  0.00     0.278 HD
ENDROOT
BRANCH   2  12
HETATM   12  C   UNL     1      65.566   7.262   6.285  1.00  0.00    -0.023 A 
HETATM   13  C   UNL     1      64.336   6.682   6.643  1.00  0.00     0.012 A 
HETATM   14  C   UNL     1      63.129   7.135   6.094  1.00  0.00     0.037 A 
HETATM   15  C   UNL     1      63.133   8.190   5.184  1.00  0.00     0.068 A 
HETATM   16  C   UNL     1      64.343   8.784   4.827  1.00  0.00     0.037 A 
HETATM   17  C   UNL     1      65.552   8.321   5.362  1.00  0.00     0.012 A 
BRANCH  15  18
HETATM   18  O   UNL     1      62.021   8.758   4.624  1.00  0.00    -0.356 OA
HETATM   19  C   UNL     1      62.226  10.002   3.962  1.00  0.00     0.210 C 
ENDBRANCH  15  18
ENDBRANCH   2  12
TORSDOF 2
ENDMDL
MODEL 3
REMARK VINA RESULT:      -5.1      3.622      6.417
REMARK  2 active torsions:
REMARK  status: ('A' for Active; 'I' for Inactive)
REMARK    1  A    between atoms: C_2  and  C_8 
REMARK    2  A    between atoms: C_13  and  O_16 
ROOT
HETATM    1  C   UNL     1      67.226   5.469   6.440  1.00  0.00    -0.010 A 
HETATM    2  C   UNL     1      66.929   6.851   6.985  1.00  0.00     0.253 C 
HETATM    3  C   UNL     1      67.617   4.426   7.264  1.00  0.00    -0.007 A 
HETATM    4  S   UNL     1      67.888   2.970   6.435  1.00  0.00    -0.106 SA
HETATM    5  N   UNL     1      66.826   6.836   8.459  1.00  0.00    -0.062 N 
HETATM    6  C   UNL     1      67.261   5.053   5.067  1.00  0.00     0.018 A 
HETATM    7  C   UNL     1      67.578   3.718   4.929  1.00  0.00     0.051 A 
HETATM    8  C   UNL     1      67.780   4.559   8.742  1.00  0.00     0.074 C 
HETATM    9  C   UNL     1      67.893   6.055   9.095  1.00  0.00     0.238 C 
HETATM   10  H   UNL     1      65.926   6.430   8.719  1.00  0.00     0.278 HD
HETATM   11  H   UNL     1      66.914   7.798   8.784  1.00  0.00     0.278 HD
ENDROOT
BRANCH   2  12
HETATM   12  C   UNL     1      65.606   7.310   6.388  1.00  0.00    -0.023 A 
HETATM   13  C   UNL     1      65.544   8.329   5.420  1.00  0.00     0.012 A 
HETATM   14  C   UNL     1      64.332   8.687   4.815  1.00  0.00     0.037 A 
HETATM   15  C   UNL     1      63.159   8.019   5.161  1.00  0.00     0.068 A 
HETATM   16  C   UNL     1      63.206   6.999   6.111  1.00  0.00     0.037 A 
HETATM   17  C   UNL     1      64.413   6.651   6.728  1.00  0.00     0.012 A 
BRANCH  15  18
HETATM   18  O   UNL     1      61.929   8.237   4.603  1.00  0.00    -0.356 OA
HETATM   19  C   UNL     1      61.902   9.118   3.485  1.00  0.00     0.210 C 
ENDBRANCH  15  18
ENDBRANCH   2  12
TORSDOF 2
ENDMDL
MODEL 4
REMARK VINA RESULT:      -5.0      3.868      6.255
REMARK  2 active torsions:
REMARK  status: ('A' for Active; 'I' for Inactive)
REMARK    1  A    between atoms: C_2  and  C_8 
REMARK    2  A    between atoms: C_13  and  O_16 
ROOT
HETATM    1  C   UNL     1      62.916   8.461   3.320  1.00  0.00    -0.010 A 
HETATM    2  C   UNL     1      61.884   9.296   2.588  1.00  0.00     0.253 C 
HETATM    3  C   UNL     1      63.418   8.837   4.554  1.00  0.00    -0.007 A 
HETATM    4  S   UNL     1      64.555   7.746   5.186  1.00  0.00    -0.106 SA
HETATM    5  N   UNL     1      61.309  10.332   3.471  1.00  0.00    -0.062 N 
HETATM    6  C   UNL     1      63.588   7.283   2.851  1.00  0.00     0.018 A 
HETATM    7  C   UNL     1      64.478   6.782   3.776  1.00  0.00     0.051 A 
HETATM    8  C   UNL     1      63.000  10.077   5.274  1.00  0.00     0.074 C 
HETATM    9  C   UNL     1      62.326  11.029   4.266  1.00  0.00     0.238 C 
HETATM   10  H   UNL     1      60.646   9.888   4.107  1.00  0.00     0.278 HD
HETATM   11  H   UNL     1      60.856  11.026   2.876  1.00  0.00     0.278 HD
ENDROOT
BRANCH   2  12
HETATM   12  C   UNL     1      60.780   8.360   2.117  1.00  0.00    -0.023 A 
HETATM   13  C   UNL     1      59.948   7.680   3.025  1.00  0.00     0.012 A 
HETATM   14  C   UNL     1      58.882   6.885   2.582  1.00  0.00     0.037 A 
HETATM   15  C   UNL     1      58.623   6.768   1.218  1.00  0.00     0.068 A 
HETATM   16  C   UNL     1      59.433   7.445   0.306  1.00  0.00     0.037 A 
HETATM   17  C   UNL     1      60.508   8.226   0.746  1.00  0.00     0.012 A 
BRANCH  15  18
HETATM   18  O   UNL     1      57.583   6.072   0.665  1.00  0.00    -0.356 OA
HETATM   19  C   UNL     1      56.283   6.438   1.114  1.00  0.00     0.210 C 
ENDBRANCH  15  18
ENDBRANCH   2  12
TORSDOF 2
ENDMDL
MODEL 5
REMARK VINA RESULT:      -4.8      2.632      3.693
REMARK  2 active torsions:
REMARK  status: ('A' for Active; 'I' for Inactive)
REMARK    1  A    between atoms: C_2  and  C_8 
REMARK    2  A    between atoms: C_13  and  O_16 
ROOT
HETATM    1  C   UNL     1      60.071   7.175   2.939  1.00  0.00    -0.010 A 
HETATM    2  C   UNL     1      60.889   8.369   2.489  1.00  0.00     0.253 C 
HETATM    3  C   UNL     1      59.626   6.215   2.045  1.00  0.00    -0.007 A 
HETATM    4  S   UNL     1      58.737   4.966   2.775  1.00  0.00    -0.106 SA
HETATM    5  N   UNL     1      61.366   8.200   1.101  1.00  0.00    -0.062 N 
HETATM    6  C   UNL     1      59.557   6.903   4.251  1.00  0.00     0.018 A 
HETATM    7  C   UNL     1      58.843   5.726   4.304  1.00  0.00     0.051 A 
HETATM    8  C   UNL     1      59.902   6.261   0.578  1.00  0.00     0.074 C 
HETATM    9  C   UNL     1      60.324   7.694   0.200  1.00  0.00     0.238 C 
HETATM   10  H   UNL     1      62.145   7.541   1.102  1.00  0.00     0.278 HD
HETATM   11  H   UNL     1      61.649   9.119   0.759  1.00  0.00     0.278 HD
ENDROOT
BRANCH   2  12
HETATM   12  C   UNL     1      62.081   8.493   3.426  1.00  0.00    -0.023 A 
HETATM   13  C   UNL     1      63.134   7.560   3.413  1.00  0.00     0.012 A 
HETATM   14  C   UNL     1      64.267   7.727   4.220  1.00  0.00     0.037 A 
HETATM   15  C   UNL     1      64.371   8.844   5.048  1.00  0.00     0.068 A 
HETATM   16  C   UNL     1      63.341   9.784   5.064  1.00  0.00     0.037 A 
HETATM   17  C   UNL     1      62.201   9.609   4.270  1.00  0.00     0.012 A 
BRANCH  15  18
HETATM   18  O   UNL     1      65.447   9.148   5.836  1.00  0.00    -0.356 OA
HETATM   19  C   UNL     1      66.292   8.056   6.181  1.00  0.00     0.210 C 
ENDBRANCH  15  18
ENDBRANCH   2  12
TORSDOF 2
ENDMDL
MODEL 6
REMARK VINA RESULT:      -4.6      1.950      3.198
REMARK  2 active torsions:
REMARK  status: ('A' for Active; 'I' for Inactive)
REMARK    1  A    between atoms: C_2  and  C_8 
REMARK    2  A    between atoms: C_13  and  O_16 
ROOT
HETATM    1  C   UNL     1      63.478   7.732   3.573  1.00  0.00    -0.010 A 
HETATM    2  C   UNL     1      64.793   6.978   3.601  1.00  0.00     0.253 C 
HETATM    3  C   UNL     1      62.353   7.216   2.950  1.00  0.00    -0.007 A 
HETATM    4  S   UNL     1      60.996   8.230   3.052  1.00  0.00    -0.106 SA
HETATM    5  N   UNL     1      64.617   5.576   3.166  1.00  0.00    -0.062 N 
HETATM    6  C   UNL     1      63.214   9.059   4.051  1.00  0.00     0.018 A 
HETATM    7  C   UNL     1      61.903   9.437   3.855  1.00  0.00     0.051 A 
HETATM    8  C   UNL     1      62.325   5.892   2.260  1.00  0.00     0.074 C 
HETATM    9  C   UNL     1      63.774   5.455   1.972  1.00  0.00     0.238 C 
HETATM   10  H   UNL     1      64.184   5.051   3.926  1.00  0.00     0.278 HD
HETATM   11  H   UNL     1      65.539   5.210   2.931  1.00  0.00     0.278 HD
ENDROOT
BRANCH   2  12
HETATM   12  C   UNL     1      65.311   7.005   5.032  1.00  0.00    -0.023 A 
HETATM   13  C   UNL     1      64.864   6.087   6.000  1.00  0.00     0.012 A 
HETATM   14  C   UNL     1      65.407   6.067   7.291  1.00  0.00     0.037 A 
HETATM   15  C   UNL     1      66.421   6.960   7.632  1.00  0.00     0.068 A 
HETATM   16  C   UNL     1      66.883   7.869   6.681  1.00  0.00     0.037 A 
HETATM   17  C   UNL     1      66.329   7.902   5.395  1.00  0.00     0.012 A 
BRANCH  15  18
HETATM   18  O   UNL     1      67.069   7.001   8.837  1.00  0.00    -0.356 OA
HETATM   19  C   UNL     1      67.983   5.939   9.086  1.00  0.00     0.210 C 
ENDBRANCH  15  18
ENDBRANCH   2  12
TORSDOF 2
ENDMDL
MODEL 7
REMARK VINA RESULT:      -4.4      3.391      5.556
REMARK  2 active torsions:
REMARK  status: ('A' for Active; 'I' for Inactive)
REMARK    1  A    between atoms: C_2  and  C_8 
REMARK    2  A    between atoms: C_13  and  O_16 
ROOT
HETATM    1  C   UNL     1      65.867   6.626   4.524  1.00  0.00    -0.010 A 
HETATM    2  C   UNL     1      65.234   7.976   4.798  1.00  0.00     0.253 C 
HETATM    3  C   UNL     1      66.749   6.038   5.414  1.00  0.00    -0.007 A 
HETATM    4  S   UNL     1      67.324   4.525   4.902  1.00  0.00    -0.106 SA
HETATM    5  N   UNL     1      65.447   8.393   6.200  1.00  0.00    -0.062 N 
HETATM    6  C   UNL     1      65.760   5.829   3.335  1.00  0.00     0.018 A 
HETATM    7  C   UNL     1      66.477   4.655   3.423  1.00  0.00     0.051 A 
HETATM    8  C   UNL     1      67.157   6.663   6.708  1.00  0.00     0.074 C 
HETATM    9  C   UNL     1      66.823   8.166   6.657  1.00  0.00     0.238 C 
HETATM   10  H   UNL     1      64.813   7.863   6.798  1.00  0.00     0.278 HD
HETATM   11  H   UNL     1      65.267   9.395   6.252  1.00  0.00     0.278 HD
ENDROOT
BRANCH   2  12
HETATM   12  C   UNL     1      63.743   7.852   4.525  1.00  0.00    -0.023 A 
HETATM   13  C   UNL     1      63.154   8.395   3.369  1.00  0.00     0.012 A 
HETATM   14  C   UNL     1      61.795   8.205   3.084  1.00  0.00     0.037 A 
HETATM   15  C   UNL     1      61.003   7.453   3.950  1.00  0.00     0.068 A 
HETATM   16  C   UNL     1      61.574   6.898   5.095  1.00  0.00     0.037 A 
HETATM   17  C   UNL     1      62.928   7.102   5.389  1.00  0.00     0.012 A 
BRANCH  15  18
HETATM   18  O   UNL     1      59.683   7.149   3.754  1.00  0.00    -0.356 OA
HETATM   19  C   UNL     1      59.189   7.350   2.434  1.00  0.00     0.210 C 
ENDBRANCH  15  18
ENDBRANCH   2  12
TORSDOF 2
ENDMDL
MODEL 8
REMARK VINA RESULT:      -4.4      4.586      6.183
REMARK  2 active torsions:
REMARK  status: ('A' for Active; 'I' for Inactive)
REMARK    1  A    between atoms: C_2  and  C_8 
REMARK    2  A    between atoms: C_13  and  O_16 
ROOT
HETATM    1  C   UNL     1      61.512   7.876   3.838  1.00  0.00    -0.010 A 
HETATM    2  C   UNL     1      60.565   7.335   2.786  1.00  0.00     0.253 C 
HETATM    3  C   UNL     1      62.136   9.105   3.698  1.00  0.00    -0.007 A 
HETATM    4  S   UNL     1      63.145   9.508   5.002  1.00  0.00    -0.106 SA
HETATM    5  N   UNL     1      60.195   8.379   1.809  1.00  0.00    -0.062 N 
HETATM    6  C   UNL     1      61.983   7.216   5.022  1.00  0.00     0.018 A 
HETATM    7  C   UNL     1      62.849   8.001   5.754  1.00  0.00     0.051 A 
HETATM    8  C   UNL     1      61.939  10.001   2.519  1.00  0.00     0.074 C 
HETATM    9  C   UNL     1      61.346   9.173   1.363  1.00  0.00     0.238 C 
HETATM   10  H   UNL     1      59.516   9.005   2.242  1.00  0.00     0.278 HD
HETATM   11  H   UNL     1      59.808   7.911   0.990  1.00  0.00     0.278 HD
ENDROOT
BRANCH   2  12
HETATM   12  C   UNL     1      59.315   6.840   3.499  1.00  0.00    -0.023 A 
HETATM   13  C   UNL     1      59.138   5.484   3.829  1.00  0.00     0.012 A 
HETATM   14  C   UNL     1      58.023   5.050   4.559  1.00  0.00     0.037 A 
HETATM   15  C   UNL     1      57.070   5.973   4.984  1.00  0.00     0.068 A 
HETATM   16  C   UNL     1      57.236   7.323   4.674  1.00  0.00     0.037 A 
HETATM   17  C   UNL     1      58.341   7.755   3.931  1.00  0.00     0.012 A 
BRANCH  15  18
HETATM   18  O   UNL     1      55.972   5.684   5.748  1.00  0.00    -0.356 OA
HETATM   19  C   UNL     1      55.750   6.540   6.863  1.00  0.00     0.210 C 
ENDBRANCH  15  18
ENDBRANCH   2  12
TORSDOF 2
ENDMDL
MODEL 9
REMARK VINA RESULT:      -4.4      2.239      2.784
REMARK  2 active torsions:
REMARK  status: ('A' for Active; 'I' for Inactive)
REMARK    1  A    between atoms: C_2  and  C_8 
REMARK    2  A    between atoms: C_13  and  O_16 
ROOT
HETATM    1  C   UNL     1      61.131   7.602   3.332  1.00  0.00    -0.010 A 
HETATM    2  C   UNL     1      62.225   8.621   3.085  1.00  0.00     0.253 C 
HETATM    3  C   UNL     1      60.231   7.242   2.343  1.00  0.00    -0.007 A 
HETATM    4  S   UNL     1      59.100   6.079   2.844  1.00  0.00    -0.106 SA
HETATM    5  N   UNL     1      62.367   8.918   1.645  1.00  0.00    -0.062 N 
HETATM    6  C   UNL     1      60.788   6.961   4.569  1.00  0.00     0.018 A 
HETATM    7  C   UNL     1      59.726   6.092   4.435  1.00  0.00     0.051 A 
HETATM    8  C   UNL     1      60.250   7.810   0.962  1.00  0.00     0.074 C 
HETATM    9  C   UNL     1      61.076   9.111   0.975  1.00  0.00     0.238 C 
HETATM   10  H   UNL     1      62.853   8.140   1.198  1.00  0.00     0.278 HD
HETATM   11  H   UNL     1      62.891   9.788   1.561  1.00  0.00     0.278 HD
ENDROOT
BRANCH   2  12
HETATM   12  C   UNL     1      63.527   8.040   3.616  1.00  0.00    -0.023 A 
HETATM   13  C   UNL     1      64.196   8.604   4.717  1.00  0.00     0.012 A 
HETATM   14  C   UNL     1      65.349   8.014   5.251  1.00  0.00     0.037 A 
HETATM   15  C   UNL     1      65.847   6.836   4.697  1.00  0.00     0.068 A 
HETATM   16  C   UNL     1      65.189   6.258   3.611  1.00  0.00     0.037 A 
HETATM   17  C   UNL     1      64.046   6.856   3.067  1.00  0.00     0.012 A 
BRANCH  15  18
HETATM   18  O   UNL     1      66.926   6.135   5.161  1.00  0.00    -0.356 OA
HETATM   19  C   UNL     1      67.894   6.892   5.880  1.00  0.00     0.210 C 
ENDBRANCH  15  18
ENDBRANCH   2  12
TORSDOF 2
ENDMDL
