MODEL 1
REMARK VINA RESULT:      -4.8      0.000      0.000
REMARK  1 active torsions:
REMARK  status: ('A' for Active; 'I' for Inactive)
REMARK    1  A    between atoms: C_8  and  N_10 
ROOT
HETATM    1  C   UNL     1      62.753   8.954   3.441  1.00  0.00     0.001 A 
HETATM    2  C   UNL     1      62.049   9.790   2.575  1.00  0.00     0.080 A 
HETATM    3  O   UNL     1      61.654   9.389   1.328  1.00  0.00    -0.326 OA
HETATM    4  C   UNL     1      63.162   9.447   4.688  1.00  0.00     0.041 A 
HETATM    5  O   UNL     1      62.310   7.165   1.895  1.00  0.00    -0.362 OA
HETATM    6  C   UNL     1      62.307   8.190   0.908  1.00  0.00     0.345 C 
HETATM    7  C   UNL     1      61.724  11.087   2.957  1.00  0.00     0.040 A 
HETATM    8  C   UNL     1      62.816  10.739   5.098  1.00  0.00     0.026 A 
HETATM    9  C   UNL     1      63.108   7.567   3.004  1.00  0.00     0.212 C 
HETATM   10  C   UNL     1      62.130  11.565   4.205  1.00  0.00     0.031 A 
ENDROOT
BRANCH   8  11
HETATM   11  N   UNL     1      63.350  11.268   6.280  1.00  0.00    -0.399 N 
HETATM   12  H   UNL     1      64.326  11.336   6.392  1.00  0.00     0.156 HD
HETATM   13  H   UNL     1      62.749  11.573   6.997  1.00  0.00     0.156 HD
ENDBRANCH   8  11
TORSDOF 1
ENDMDL
MODEL 2
REMARK VINA RESULT:      -4.7      2.904      3.889
REMARK  1 active torsions:
REMARK  status: ('A' for Active; 'I' for Inactive)
REMARK    1  A    between atoms: C_8  and  N_10 
ROOT
HETATM    1  C   UNL     1      63.059   9.166   3.826  1.00  0.00     0.001 A 
HETATM    2  C   UNL     1      62.328  10.308   3.502  1.00  0.00     0.080 A 
HETATM    3  O   UNL     1      62.261  11.395   4.330  1.00  0.00    -0.326 OA
HETATM    4  C   UNL     1      63.048   8.073   2.947  1.00  0.00     0.041 A 
HETATM    5  O   UNL     1      63.965  10.406   5.677  1.00  0.00    -0.362 OA
HETATM    6  C   UNL     1      62.726  11.106   5.649  1.00  0.00     0.345 C 
HETATM    7  C   UNL     1      61.625  10.378   2.304  1.00  0.00     0.040 A 
HETATM    8  C   UNL     1      62.372   8.141   1.725  1.00  0.00     0.026 A 
HETATM    9  C   UNL     1      63.794   9.103   5.128  1.00  0.00     0.212 C 
HETATM   10  C   UNL     1      61.628   9.287   1.432  1.00  0.00     0.031 A 
ENDROOT
BRANCH   8  11
HETATM   11  N   UNL     1      62.250   6.998   0.925  1.00  0.00    -0.399 N 
HETATM   12  H   UNL     1      62.487   6.114   1.288  1.00  0.00     0.156 HD
HETATM   13  H   UNL     1      61.925   7.079  -0.001  1.00  0.00     0.156 HD
ENDBRANCH   8  11
TORSDOF 1
ENDMDL
MODEL 3
REMARK VINA RESULT:      -4.6      2.427      3.230
REMARK  1 active torsions:
REMARK  status: ('A' for Active; 'I' for Inactive)
REMARK    1  A    between atoms: C_8  and  N_10 
ROOT
HETATM    1  C   UNL     1      63.034   8.564   3.819  1.00  0.00     0.001 A 
HETATM    2  C   UNL     1      63.264   9.116   5.078  1.00  0.00     0.080 A 
HETATM    3  O   UNL     1      63.847   8.410   6.094  1.00  0.00    -0.326 OA
HETATM    4  C   UNL     1      62.394   9.335   2.838  1.00  0.00     0.041 A 
HETATM    5  O   UNL     1      64.349   6.679   4.529  1.00  0.00    -0.362 OA
HETATM    6  C   UNL     1      63.880   7.006   5.832  1.00  0.00     0.345 C 
HETATM    7  C   UNL     1      62.898  10.431   5.348  1.00  0.00     0.040 A 
HETATM    8  C   UNL     1      62.049  10.668   3.086  1.00  0.00     0.026 A 
HETATM    9  C   UNL     1      63.420   7.142   3.554  1.00  0.00     0.212 C 
HETATM   10  C   UNL     1      62.269  11.193   4.361  1.00  0.00     0.031 A 
ENDROOT
BRANCH   8  11
HETATM   11  N   UNL     1      61.285  11.381   2.152  1.00  0.00    -0.399 N 
HETATM   12  H   UNL     1      61.268  11.097   1.210  1.00  0.00     0.156 HD
HETATM   13  H   UNL     1      60.764  12.164   2.440  1.00  0.00     0.156 HD
ENDBRANCH   8  11
TORSDOF 1
ENDMDL
MODEL 4
REMARK VINA RESULT:      -4.5      3.015      3.809
REMARK  1 active torsions:
REMARK  status: ('A' for Active; 'I' for Inactive)
REMARK    1  A    between atoms: C_8  and  N_10 
ROOT
HETATM    1  C   UNL     1      63.987   8.080   4.100  1.00  0.00     0.001 A 
HETATM    2  C   UNL     1      64.150   9.112   5.023  1.00  0.00     0.080 A 
HETATM    3  O   UNL     1      65.194   9.149   5.906  1.00  0.00    -0.326 OA
HETATM    4  C   UNL     1      62.870   8.087   3.253  1.00  0.00     0.041 A 
HETATM    5  O   UNL     1      66.181   7.320   4.732  1.00  0.00    -0.362 OA
HETATM    6  C   UNL     1      65.876   7.897   5.996  1.00  0.00     0.345 C 
HETATM    7  C   UNL     1      63.234  10.157   5.079  1.00  0.00     0.040 A 
HETATM    8  C   UNL     1      61.958   9.147   3.277  1.00  0.00     0.026 A 
HETATM    9  C   UNL     1      64.975   6.955   4.067  1.00  0.00     0.212 C 
HETATM   10  C   UNL     1      62.129  10.158   4.225  1.00  0.00     0.031 A 
ENDROOT
BRANCH   8  11
HETATM   11  N   UNL     1      60.774   9.072   2.531  1.00  0.00    -0.399 N 
HETATM   12  H   UNL     1      60.744   9.437   1.617  1.00  0.00     0.156 HD
HETATM   13  H   UNL     1      59.973   8.654   2.922  1.00  0.00     0.156 HD
ENDBRANCH   8  11
TORSDOF 1
ENDMDL
MODEL 5
REMARK VINA RESULT:      -4.3      0.848      2.173
REMARK  1 active torsions:
REMARK  status: ('A' for Active; 'I' for Inactive)
REMARK    1  A    between atoms: C_8  and  N_10 
ROOT
HETATM    1  C   UNL     1      62.317   9.632   2.981  1.00  0.00     0.001 A 
HETATM    2  C   UNL     1      63.031   8.441   3.110  1.00  0.00     0.080 A 
HETATM    3  O   UNL     1      63.018   7.470   2.148  1.00  0.00    -0.326 OA
HETATM    4  C   UNL     1      62.345  10.565   4.027  1.00  0.00     0.041 A 
HETATM    5  O   UNL     1      61.883   8.993   0.703  1.00  0.00    -0.362 OA
HETATM    6  C   UNL     1      61.971   7.661   1.194  1.00  0.00     0.345 C 
HETATM    7  C   UNL     1      63.791   8.196   4.249  1.00  0.00     0.040 A 
HETATM    8  C   UNL     1      63.130  10.346   5.164  1.00  0.00     0.026 A 
HETATM    9  C   UNL     1      61.491   9.869   1.755  1.00  0.00     0.212 C 
HETATM   10  C   UNL     1      63.818   9.137   5.282  1.00  0.00     0.031 A 
ENDROOT
BRANCH   8  11
HETATM   11  N   UNL     1      63.037  11.214   6.260  1.00  0.00    -0.399 N 
HETATM   12  H   UNL     1      62.881  12.175   6.115  1.00  0.00     0.156 HD
HETATM   13  H   UNL     1      63.127  10.861   7.174  1.00  0.00     0.156 HD
ENDBRANCH   8  11
TORSDOF 1
ENDMDL
MODEL 6
REMARK VINA RESULT:      -4.1      4.717      5.774
REMARK  1 active torsions:
REMARK  status: ('A' for Active; 'I' for Inactive)
REMARK    1  A    between atoms: C_8  and  N_10 
ROOT
HETATM    1  C   UNL     1      64.935   6.872   6.195  1.00  0.00     0.001 A 
HETATM    2  C   UNL     1      65.677   7.990   5.819  1.00  0.00     0.080 A 
HETATM    3  O   UNL     1      65.093   9.187   5.505  1.00  0.00    -0.326 OA
HETATM    4  C   UNL     1      65.600   5.666   6.463  1.00  0.00     0.041 A 
HETATM    5  O   UNL     1      63.016   8.319   6.298  1.00  0.00    -0.362 OA
HETATM    6  C   UNL     1      63.686   9.066   5.290  1.00  0.00     0.345 C 
HETATM    7  C   UNL     1      67.065   7.923   5.745  1.00  0.00     0.040 A 
HETATM    8  C   UNL     1      66.996   5.592   6.424  1.00  0.00     0.026 A 
HETATM    9  C   UNL     1      63.442   6.960   6.253  1.00  0.00     0.212 C 
HETATM   10  C   UNL     1      67.717   6.719   6.022  1.00  0.00     0.031 A 
ENDROOT
BRANCH   8  11
HETATM   11  N   UNL     1      67.638   4.353   6.551  1.00  0.00    -0.399 N 
HETATM   12  H   UNL     1      67.138   3.572   6.881  1.00  0.00     0.156 HD
HETATM   13  H   UNL     1      68.588   4.266   6.310  1.00  0.00     0.156 HD
ENDBRANCH   8  11
TORSDOF 1
ENDMDL
MODEL 7
REMARK VINA RESULT:      -4.0      3.895      5.132
REMARK  1 active torsions:
REMARK  status: ('A' for Active; 'I' for Inactive)
REMARK    1  A    between atoms: C_8  and  N_10 
ROOT
HETATM    1  C   UNL     1      64.602   7.434   4.194  1.00  0.00     0.001 A 
HETATM    2  C   UNL     1      65.291   8.261   5.080  1.00  0.00     0.080 A 
HETATM    3  O   UNL     1      64.699   9.325   5.703  1.00  0.00    -0.326 OA
HETATM    4  C   UNL     1      65.285   6.386   3.561  1.00  0.00     0.041 A 
HETATM    5  O   UNL     1      62.592   8.562   4.883  1.00  0.00    -0.362 OA
HETATM    6  C   UNL     1      63.447   9.675   5.111  1.00  0.00     0.345 C 
HETATM    7  C   UNL     1      66.633   8.027   5.361  1.00  0.00     0.040 A 
HETATM    8  C   UNL     1      66.626   6.121   3.857  1.00  0.00     0.026 A 
HETATM    9  C   UNL     1      63.162   7.712   3.893  1.00  0.00     0.212 C 
HETATM   10  C   UNL     1      67.302   6.975   4.730  1.00  0.00     0.031 A 
ENDROOT
BRANCH   8  11
HETATM   11  N   UNL     1      67.334   5.167   3.115  1.00  0.00    -0.399 N 
HETATM   12  H   UNL     1      67.578   4.306   3.524  1.00  0.00     0.156 HD
HETATM   13  H   UNL     1      67.586   5.359   2.183  1.00  0.00     0.156 HD
ENDBRANCH   8  11
TORSDOF 1
ENDMDL
MODEL 8
REMARK VINA RESULT:      -4.0      1.331      1.679
REMARK  1 active torsions:
REMARK  status: ('A' for Active; 'I' for Inactive)
REMARK    1  A    between atoms: C_8  and  N_10 
ROOT
HETATM    1  C   UNL     1      63.007   8.037   2.928  1.00  0.00     0.001 A 
HETATM    2  C   UNL     1      62.193   9.169   2.920  1.00  0.00     0.080 A 
HETATM    3  O   UNL     1      61.302   9.425   1.914  1.00  0.00    -0.326 OA
HETATM    4  C   UNL     1      63.926   7.861   3.972  1.00  0.00     0.041 A 
HETATM    5  O   UNL     1      61.718   7.234   1.062  1.00  0.00    -0.362 OA
HETATM    6  C   UNL     1      61.533   8.612   0.762  1.00  0.00     0.345 C 
HETATM    7  C   UNL     1      62.266  10.096   3.954  1.00  0.00     0.040 A 
HETATM    8  C   UNL     1      63.988   8.768   5.034  1.00  0.00     0.026 A 
HETATM    9  C   UNL     1      62.925   7.060   1.797  1.00  0.00     0.212 C 
HETATM   10  C   UNL     1      63.180   9.906   4.994  1.00  0.00     0.031 A 
ENDROOT
BRANCH   8  11
HETATM   11  N   UNL     1      65.004   8.660   5.993  1.00  0.00    -0.399 N 
HETATM   12  H   UNL     1      65.251   9.441   6.539  1.00  0.00     0.156 HD
HETATM   13  H   UNL     1      65.470   7.802   6.120  1.00  0.00     0.156 HD
ENDBRANCH   8  11
TORSDOF 1
ENDMDL
MODEL 9
REMARK VINA RESULT:      -3.9      3.182      4.252
REMARK  1 active torsions:
REMARK  status: ('A' for Active; 'I' for Inactive)
REMARK    1  A    between atoms: C_8  and  N_10 
ROOT
HETATM    1  C   UNL     1      63.336   8.348   4.613  1.00  0.00     0.001 A 
HETATM    2  C   UNL     1      62.604   7.326   5.215  1.00  0.00     0.080 A 
HETATM    3  O   UNL     1      63.101   6.577   6.246  1.00  0.00    -0.326 OA
HETATM    4  C   UNL     1      62.777   9.047   3.533  1.00  0.00     0.041 A 
HETATM    5  O   UNL     1      64.944   8.087   6.383  1.00  0.00    -0.362 OA
HETATM    6  C   UNL     1      64.513   6.732   6.401  1.00  0.00     0.345 C 
HETATM    7  C   UNL     1      61.319   7.026   4.775  1.00  0.00     0.040 A 
HETATM    8  C   UNL     1      61.475   8.777   3.100  1.00  0.00     0.026 A 
HETATM    9  C   UNL     1      64.723   8.645   5.091  1.00  0.00     0.212 C 
HETATM   10  C   UNL     1      60.769   7.734   3.703  1.00  0.00     0.031 A 
ENDROOT
BRANCH   8  11
HETATM   11  N   UNL     1      60.983   9.379   1.934  1.00  0.00    -0.399 N 
HETATM   12  H   UNL     1      60.721   8.822   1.165  1.00  0.00     0.156 HD
HETATM   13  H   UNL     1      60.899  10.358   1.885  1.00  0.00     0.156 HD
ENDBRANCH   8  11
TORSDOF 1
ENDMDL
