MODEL 1
REMARK VINA RESULT:      -5.6      0.000      0.000
REMARK  3 active torsions:
REMARK  status: ('A' for Active; 'I' for Inactive)
REMARK    1  A    between atoms: C_1  and  C_2 
REMARK    2  A    between atoms: C_1  and  C_5 
REMARK    3  A    between atoms: C_8  and  O_11 
ROOT
HETATM    1  C   UNL     1      63.674   7.214   5.843  1.00  0.00     0.163 C 
HETATM    2  O   UNL     1      63.016   6.757   6.765  1.00  0.00    -0.292 OA
ENDROOT
BRANCH   1   3
HETATM    3  C   UNL     1      63.153   8.429   5.136  1.00  0.00     0.010 A 
HETATM    4  C   UNL     1      63.201   9.690   5.767  1.00  0.00     0.018 A 
HETATM    5  C   UNL     1      62.737  10.838   5.114  1.00  0.00     0.037 A 
HETATM    6  C   UNL     1      62.214  10.757   3.820  1.00  0.00     0.068 A 
HETATM    7  C   UNL     1      62.157   9.502   3.187  1.00  0.00     0.037 A 
HETATM    8  C   UNL     1      62.618   8.358   3.834  1.00  0.00     0.018 A 
BRANCH   6   9
HETATM    9  O   UNL     1      61.777  11.895   3.219  1.00  0.00    -0.356 OA
HETATM   10  C   UNL     1      61.656  12.078   1.856  1.00  0.00     0.210 C 
ENDBRANCH   6   9
ENDBRANCH   1   3
BRANCH   1  11
HETATM   11  C   UNL     1      65.027   6.586   5.492  1.00  0.00     0.064 C 
HETATM   12  C   UNL     1      65.507   5.620   6.591  1.00  0.00     0.040 C 
HETATM   13  C   UNL     1      65.968   6.400   7.834  1.00  0.00     0.233 C 
HETATM   14  N   UNL     1      67.057   7.327   7.480  1.00  0.00    -0.075 N 
HETATM   15  C   UNL     1      66.629   8.312   6.483  1.00  0.00     0.233 C 
HETATM   16  H   UNL     1      67.837   6.790   7.100  1.00  0.00     0.277 HD
HETATM   17  H   UNL     1      67.335   7.829   8.323  1.00  0.00     0.277 HD
HETATM   18  C   UNL     1      66.155   7.600   5.205  1.00  0.00     0.040 C 
ENDBRANCH   1  11
TORSDOF 3
ENDMDL
MODEL 2
REMARK VINA RESULT:      -5.2      1.246      1.912
REMARK  3 active torsions:
REMARK  status: ('A' for Active; 'I' for Inactive)
REMARK    1  A    between atoms: C_1  and  C_2 
REMARK    2  A    between atoms: C_1  and  C_5 
REMARK    3  A    between atoms: C_8  and  O_11 
ROOT
HETATM    1  C   UNL     1      64.643   7.691   6.115  1.00  0.00     0.163 C 
HETATM    2  O   UNL     1      64.053   6.997   6.929  1.00  0.00    -0.292 OA
ENDROOT
BRANCH   1   3
HETATM    3  C   UNL     1      63.836   8.385   5.059  1.00  0.00     0.010 A 
HETATM    4  C   UNL     1      63.351   9.690   5.285  1.00  0.00     0.018 A 
HETATM    5  C   UNL     1      62.611  10.361   4.303  1.00  0.00     0.037 A 
HETATM    6  C   UNL     1      62.338   9.747   3.076  1.00  0.00     0.068 A 
HETATM    7  C   UNL     1      62.813   8.443   2.847  1.00  0.00     0.037 A 
HETATM    8  C   UNL     1      63.549   7.773   3.823  1.00  0.00     0.018 A 
BRANCH   6   9
HETATM    9  O   UNL     1      61.620  10.432   2.148  1.00  0.00    -0.356 OA
HETATM   10  C   UNL     1      61.684  11.796   1.941  1.00  0.00     0.210 C 
ENDBRANCH   6   9
ENDBRANCH   1   3
BRANCH   1  11
HETATM   11  C   UNL     1      66.157   7.887   6.242  1.00  0.00     0.064 C 
HETATM   12  C   UNL     1      66.864   7.761   4.879  1.00  0.00     0.040 C 
HETATM   13  C   UNL     1      66.893   6.295   4.418  1.00  0.00     0.233 C 
HETATM   14  N   UNL     1      67.588   5.461   5.414  1.00  0.00    -0.075 N 
HETATM   15  C   UNL     1      66.914   5.494   6.715  1.00  0.00     0.233 C 
HETATM   16  H   UNL     1      68.542   5.807   5.527  1.00  0.00     0.277 HD
HETATM   17  H   UNL     1      67.586   4.497   5.080  1.00  0.00     0.277 HD
HETATM   18  C   UNL     1      66.851   6.937   7.241  1.00  0.00     0.040 C 
ENDBRANCH   1  11
TORSDOF 3
ENDMDL
MODEL 3
REMARK VINA RESULT:      -5.1      1.878      2.421
REMARK  3 active torsions:
REMARK  status: ('A' for Active; 'I' for Inactive)
REMARK    1  A    between atoms: C_1  and  C_2 
REMARK    2  A    between atoms: C_1  and  C_5 
REMARK    3  A    between atoms: C_8  and  O_11 
ROOT
HETATM    1  C   UNL     1      64.843   8.144   5.292  1.00  0.00     0.163 C 
HETATM    2  O   UNL     1      65.329   9.097   5.882  1.00  0.00    -0.292 OA
ENDROOT
BRANCH   1   3
HETATM    3  C   UNL     1      63.777   8.411   4.272  1.00  0.00     0.010 A 
HETATM    4  C   UNL     1      63.567   7.502   3.214  1.00  0.00     0.018 A 
HETATM    5  C   UNL     1      62.564   7.726   2.263  1.00  0.00     0.037 A 
HETATM    6  C   UNL     1      61.749   8.860   2.344  1.00  0.00     0.068 A 
HETATM    7  C   UNL     1      61.958   9.774   3.393  1.00  0.00     0.037 A 
HETATM    8  C   UNL     1      62.956   9.554   4.340  1.00  0.00     0.018 A 
BRANCH   6   9
HETATM    9  O   UNL     1      60.784   9.040   1.404  1.00  0.00    -0.356 OA
HETATM   10  C   UNL     1      60.336   8.071   0.529  1.00  0.00     0.210 C 
ENDBRANCH   6   9
ENDBRANCH   1   3
BRANCH   1  11
HETATM   11  C   UNL     1      65.382   6.734   5.555  1.00  0.00     0.064 C 
HETATM   12  C   UNL     1      65.522   6.450   7.062  1.00  0.00     0.040 C 
HETATM   13  C   UNL     1      66.710   7.228   7.651  1.00  0.00     0.233 C 
HETATM   14  N   UNL     1      67.957   6.856   6.960  1.00  0.00    -0.075 N 
HETATM   15  C   UNL     1      67.899   7.169   5.529  1.00  0.00     0.233 C 
HETATM   16  H   UNL     1      68.111   5.854   7.073  1.00  0.00     0.277 HD
HETATM   17  H   UNL     1      68.721   7.392   7.372  1.00  0.00     0.277 HD
HETATM   18  C   UNL     1      66.730   6.419   4.871  1.00  0.00     0.040 C 
ENDBRANCH   1  11
TORSDOF 3
ENDMDL
MODEL 4
REMARK VINA RESULT:      -5.0      1.638      2.559
REMARK  3 active torsions:
REMARK  status: ('A' for Active; 'I' for Inactive)
REMARK    1  A    between atoms: C_1  and  C_2 
REMARK    2  A    between atoms: C_1  and  C_5 
REMARK    3  A    between atoms: C_8  and  O_11 
ROOT
HETATM    1  C   UNL     1      64.634   7.687   6.017  1.00  0.00     0.163 C 
HETATM    2  O   UNL     1      64.064   7.117   6.935  1.00  0.00    -0.292 OA
ENDROOT
BRANCH   1   3
HETATM    3  C   UNL     1      63.815   8.134   4.844  1.00  0.00     0.010 A 
HETATM    4  C   UNL     1      63.631   7.273   3.741  1.00  0.00     0.018 A 
HETATM    5  C   UNL     1      62.853   7.667   2.645  1.00  0.00     0.037 A 
HETATM    6  C   UNL     1      62.243   8.925   2.622  1.00  0.00     0.068 A 
HETATM    7  C   UNL     1      62.428   9.791   3.715  1.00  0.00     0.037 A 
HETATM    8  C   UNL     1      63.202   9.402   4.807  1.00  0.00     0.018 A 
BRANCH   6   9
HETATM    9  O   UNL     1      61.493   9.268   1.542  1.00  0.00    -0.356 OA
HETATM   10  C   UNL     1      60.902   8.378   0.669  1.00  0.00     0.210 C 
ENDBRANCH   6   9
ENDBRANCH   1   3
BRANCH   1  11
HETATM   11  C   UNL     1      66.132   7.990   6.126  1.00  0.00     0.064 C 
HETATM   12  C   UNL     1      66.878   7.652   4.821  1.00  0.00     0.040 C 
HETATM   13  C   UNL     1      66.996   6.129   4.645  1.00  0.00     0.233 C 
HETATM   14  N   UNL     1      67.710   5.537   5.790  1.00  0.00    -0.075 N 
HETATM   15  C   UNL     1      67.004   5.774   7.052  1.00  0.00     0.233 C 
HETATM   16  H   UNL     1      68.641   5.952   5.849  1.00  0.00     0.277 HD
HETATM   17  H   UNL     1      67.768   4.529   5.643  1.00  0.00     0.277 HD
HETATM   18  C   UNL     1      66.851   7.284   7.296  1.00  0.00     0.040 C 
ENDBRANCH   1  11
TORSDOF 3
ENDMDL
MODEL 5
REMARK VINA RESULT:      -4.7      3.246      6.032
REMARK  3 active torsions:
REMARK  status: ('A' for Active; 'I' for Inactive)
REMARK    1  A    between atoms: C_1  and  C_2 
REMARK    2  A    between atoms: C_1  and  C_5 
REMARK    3  A    between atoms: C_8  and  O_11 
ROOT
HETATM    1  C   UNL     1      63.290   7.530   2.788  1.00  0.00     0.163 C 
HETATM    2  O   UNL     1      63.509   6.696   1.922  1.00  0.00    -0.292 OA
ENDROOT
BRANCH   1   3
HETATM    3  C   UNL     1      63.879   7.309   4.149  1.00  0.00     0.010 A 
HETATM    4  C   UNL     1      64.937   8.125   4.602  1.00  0.00     0.018 A 
HETATM    5  C   UNL     1      65.486   7.945   5.878  1.00  0.00     0.037 A 
HETATM    6  C   UNL     1      64.995   6.950   6.728  1.00  0.00     0.068 A 
HETATM    7  C   UNL     1      63.945   6.129   6.280  1.00  0.00     0.037 A 
HETATM    8  C   UNL     1      63.396   6.305   5.011  1.00  0.00     0.018 A 
BRANCH   6   9
HETATM    9  O   UNL     1      65.552   6.809   7.960  1.00  0.00    -0.356 OA
HETATM   10  C   UNL     1      66.907   6.755   8.219  1.00  0.00     0.210 C 
ENDBRANCH   6   9
ENDBRANCH   1   3
BRANCH   1  11
HETATM   11  C   UNL     1      62.496   8.794   2.440  1.00  0.00     0.064 C 
HETATM   12  C   UNL     1      61.420   9.099   3.498  1.00  0.00     0.040 C 
HETATM   13  C   UNL     1      60.256   8.099   3.391  1.00  0.00     0.233 C 
HETATM   14  N   UNL     1      59.657   8.156   2.046  1.00  0.00    -0.075 N 
HETATM   15  C   UNL     1      60.627   7.807   1.004  1.00  0.00     0.233 C 
HETATM   16  H   UNL     1      59.316   9.103   1.876  1.00  0.00     0.277 HD
HETATM   17  H   UNL     1      58.894   7.480   2.009  1.00  0.00     0.277 HD
HETATM   18  C   UNL     1      61.823   8.772   1.051  1.00  0.00     0.040 C 
ENDBRANCH   1  11
TORSDOF 3
ENDMDL
MODEL 6
REMARK VINA RESULT:      -4.7      2.896      5.911
REMARK  3 active torsions:
REMARK  status: ('A' for Active; 'I' for Inactive)
REMARK    1  A    between atoms: C_1  and  C_2 
REMARK    2  A    between atoms: C_1  and  C_5 
REMARK    3  A    between atoms: C_8  and  O_11 
ROOT
HETATM    1  C   UNL     1      62.763   7.334   2.835  1.00  0.00     0.163 C 
HETATM    2  O   UNL     1      63.357   6.928   1.848  1.00  0.00    -0.292 OA
ENDROOT
BRANCH   1   3
HETATM    3  C   UNL     1      63.442   7.219   4.167  1.00  0.00     0.010 A 
HETATM    4  C   UNL     1      62.950   6.319   5.136  1.00  0.00     0.018 A 
HETATM    5  C   UNL     1      63.583   6.184   6.378  1.00  0.00     0.037 A 
HETATM    6  C   UNL     1      64.717   6.943   6.683  1.00  0.00     0.068 A 
HETATM    7  C   UNL     1      65.209   7.847   5.724  1.00  0.00     0.037 A 
HETATM    8  C   UNL     1      64.581   7.983   4.488  1.00  0.00     0.018 A 
BRANCH   6   9
HETATM    9  O   UNL     1      65.304   6.780   7.898  1.00  0.00    -0.356 OA
HETATM   10  C   UNL     1      66.662   6.837   8.139  1.00  0.00     0.210 C 
ENDBRANCH   6   9
ENDBRANCH   1   3
BRANCH   1  11
HETATM   11  C   UNL     1      61.396   8.007   2.674  1.00  0.00     0.064 C 
HETATM   12  C   UNL     1      61.261   8.701   1.306  1.00  0.00     0.040 C 
HETATM   13  C   UNL     1      62.116   9.978   1.260  1.00  0.00     0.233 C 
HETATM   14  N   UNL     1      61.705  10.906   2.329  1.00  0.00    -0.075 N 
HETATM   15  C   UNL     1      61.878  10.315   3.659  1.00  0.00     0.233 C 
HETATM   16  H   UNL     1      60.721  11.145   2.198  1.00  0.00     0.277 HD
HETATM   17  H   UNL     1      62.293  11.738   2.272  1.00  0.00     0.277 HD
HETATM   18  C   UNL     1      61.045   9.029   3.778  1.00  0.00     0.040 C 
ENDBRANCH   1  11
TORSDOF 3
ENDMDL
MODEL 7
REMARK VINA RESULT:      -4.6      2.515      3.289
REMARK  3 active torsions:
REMARK  status: ('A' for Active; 'I' for Inactive)
REMARK    1  A    between atoms: C_1  and  C_2 
REMARK    2  A    between atoms: C_1  and  C_5 
REMARK    3  A    between atoms: C_8  and  O_11 
ROOT
HETATM    1  C   UNL     1      65.473   8.266   5.352  1.00  0.00     0.163 C 
HETATM    2  O   UNL     1      65.716   9.096   6.214  1.00  0.00    -0.292 OA
ENDROOT
BRANCH   1   3
HETATM    3  C   UNL     1      64.037   7.977   5.033  1.00  0.00     0.010 A 
HETATM    4  C   UNL     1      63.470   8.451   3.831  1.00  0.00     0.018 A 
HETATM    5  C   UNL     1      62.136   8.174   3.508  1.00  0.00     0.037 A 
HETATM    6  C   UNL     1      61.337   7.422   4.374  1.00  0.00     0.068 A 
HETATM    7  C   UNL     1      61.894   6.951   5.577  1.00  0.00     0.037 A 
HETATM    8  C   UNL     1      63.221   7.225   5.901  1.00  0.00     0.018 A 
BRANCH   6   9
HETATM    9  O   UNL     1      60.048   7.171   4.023  1.00  0.00    -0.356 OA
HETATM   10  C   UNL     1      59.150   6.433   4.767  1.00  0.00     0.210 C 
ENDBRANCH   6   9
ENDBRANCH   1   3
BRANCH   1  11
HETATM   11  C   UNL     1      66.625   7.611   4.582  1.00  0.00     0.064 C 
HETATM   12  C   UNL     1      66.236   6.218   4.053  1.00  0.00     0.040 C 
HETATM   13  C   UNL     1      66.166   5.202   5.205  1.00  0.00     0.233 C 
HETATM   14  N   UNL     1      67.465   5.124   5.896  1.00  0.00    -0.075 N 
HETATM   15  C   UNL     1      67.850   6.414   6.477  1.00  0.00     0.233 C 
HETATM   16  H   UNL     1      68.180   4.838   5.226  1.00  0.00     0.277 HD
HETATM   17  H   UNL     1      67.383   4.446   6.654  1.00  0.00     0.277 HD
HETATM   18  C   UNL     1      67.942   7.483   5.376  1.00  0.00     0.040 C 
ENDBRANCH   1  11
TORSDOF 3
ENDMDL
MODEL 8
REMARK VINA RESULT:      -4.5      3.739      6.091
REMARK  3 active torsions:
REMARK  status: ('A' for Active; 'I' for Inactive)
REMARK    1  A    between atoms: C_1  and  C_2 
REMARK    2  A    between atoms: C_1  and  C_5 
REMARK    3  A    between atoms: C_8  and  O_11 
ROOT
HETATM    1  C   UNL     1      61.513   7.801   2.209  1.00  0.00     0.163 C 
HETATM    2  O   UNL     1      61.289   8.620   1.332  1.00  0.00    -0.292 OA
ENDROOT
BRANCH   1   3
HETATM    3  C   UNL     1      62.608   8.094   3.190  1.00  0.00     0.010 A 
HETATM    4  C   UNL     1      62.482   9.176   4.087  1.00  0.00     0.018 A 
HETATM    5  C   UNL     1      63.487   9.453   5.023  1.00  0.00     0.037 A 
HETATM    6  C   UNL     1      64.637   8.661   5.085  1.00  0.00     0.068 A 
HETATM    7  C   UNL     1      64.772   7.585   4.190  1.00  0.00     0.037 A 
HETATM    8  C   UNL     1      63.774   7.307   3.258  1.00  0.00     0.018 A 
BRANCH   6   9
HETATM    9  O   UNL     1      65.587   8.961   6.010  1.00  0.00    -0.356 OA
HETATM   10  C   UNL     1      66.531   8.078   6.495  1.00  0.00     0.210 C 
ENDBRANCH   6   9
ENDBRANCH   1   3
BRANCH   1  11
HETATM   11  C   UNL     1      60.631   6.553   2.324  1.00  0.00     0.064 C 
HETATM   12  C   UNL     1      59.560   6.509   1.218  1.00  0.00     0.040 C 
HETATM   13  C   UNL     1      58.462   7.552   1.485  1.00  0.00     0.233 C 
HETATM   14  N   UNL     1      57.832   7.305   2.793  1.00  0.00    -0.075 N 
HETATM   15  C   UNL     1      58.799   7.402   3.890  1.00  0.00     0.233 C 
HETATM   16  H   UNL     1      57.426   6.368   2.792  1.00  0.00     0.277 HD
HETATM   17  H   UNL     1      57.113   8.014   2.940  1.00  0.00     0.277 HD
HETATM   18  C   UNL     1      59.930   6.380   3.689  1.00  0.00     0.040 C 
ENDBRANCH   1  11
TORSDOF 3
ENDMDL
MODEL 9
REMARK VINA RESULT:      -4.4      2.724      5.997
REMARK  3 active torsions:
REMARK  status: ('A' for Active; 'I' for Inactive)
REMARK    1  A    between atoms: C_1  and  C_2 
REMARK    2  A    between atoms: C_1  and  C_5 
REMARK    3  A    between atoms: C_8  and  O_11 
ROOT
HETATM    1  C   UNL     1      63.796   8.608   4.807  1.00  0.00     0.163 C 
HETATM    2  O   UNL     1      63.236   9.487   5.445  1.00  0.00    -0.292 OA
ENDROOT
BRANCH   1   3
HETATM    3  C   UNL     1      64.902   7.845   5.473  1.00  0.00     0.010 A 
HETATM    4  C   UNL     1      66.235   8.014   5.045  1.00  0.00     0.018 A 
HETATM    5  C   UNL     1      67.283   7.325   5.669  1.00  0.00     0.037 A 
HETATM    6  C   UNL     1      67.025   6.452   6.730  1.00  0.00     0.068 A 
HETATM    7  C   UNL     1      65.697   6.274   7.158  1.00  0.00     0.037 A 
HETATM    8  C   UNL     1      64.653   6.959   6.539  1.00  0.00     0.018 A 
BRANCH   6   9
HETATM    9  O   UNL     1      68.069   5.804   7.311  1.00  0.00    -0.356 OA
HETATM   10  C   UNL     1      67.972   4.644   8.054  1.00  0.00     0.210 C 
ENDBRANCH   6   9
ENDBRANCH   1   3
BRANCH   1  11
HETATM   11  C   UNL     1      63.309   8.268   3.395  1.00  0.00     0.064 C 
HETATM   12  C   UNL     1      61.851   8.711   3.173  1.00  0.00     0.040 C 
HETATM   13  C   UNL     1      60.884   7.795   3.941  1.00  0.00     0.233 C 
HETATM   14  N   UNL     1      61.049   6.398   3.502  1.00  0.00    -0.075 N 
HETATM   15  C   UNL     1      62.406   5.905   3.754  1.00  0.00     0.233 C 
HETATM   16  H   UNL     1      60.857   6.341   2.501  1.00  0.00     0.277 HD
HETATM   17  H   UNL     1      60.397   5.819   4.033  1.00  0.00     0.277 HD
HETATM   18  C   UNL     1      63.431   6.777   3.011  1.00  0.00     0.040 C 
ENDBRANCH   1  11
TORSDOF 3
ENDMDL
