MODEL 1
REMARK VINA RESULT:      -4.1      0.000      0.000
REMARK  2 active torsions:
REMARK  status: ('A' for Active; 'I' for Inactive)
REMARK    1  A    between atoms: C_1  and  C_4 
REMARK    2  A    between atoms: C_3  and  S_8 
ROOT
HETATM    1  C   UNL     1      62.344  10.074   3.503  1.00  0.00     0.082 A 
HETATM    2  S   UNL     1      62.823   8.431   3.513  1.00  0.00    -0.076 SA
HETATM    3  C   UNL     1      62.426   8.218   1.861  1.00  0.00     0.041 A 
HETATM    4  C   UNL     1      61.892  10.452   2.252  1.00  0.00     0.028 A 
HETATM    5  C   UNL     1      61.943   9.384   1.307  1.00  0.00     0.027 A 
ENDROOT
BRANCH   1   6
HETATM    6  C   UNL     1      62.455  10.853   4.712  1.00  0.00     0.216 C 
HETATM    7  O   UNL     1      62.953  10.545   5.786  1.00  0.00    -0.643 OA
HETATM    8  O   UNL     1      61.911  12.084   4.560  1.00  0.00    -0.643 OA
ENDBRANCH   1   6
BRANCH   3   9
HETATM    9  S   UNL     1      62.695   6.670   1.070  1.00  0.00    -0.127 SA
HETATM   10  C   UNL     1      63.931   5.894   2.130  1.00  0.00     0.096 C 
ENDBRANCH   3   9
TORSDOF 2
ENDMDL
MODEL 2
REMARK VINA RESULT:      -4.0      2.442      3.036
REMARK  2 active torsions:
REMARK  status: ('A' for Active; 'I' for Inactive)
REMARK    1  A    between atoms: C_1  and  C_4 
REMARK    2  A    between atoms: C_3  and  S_8 
ROOT
HETATM    1  C   UNL     1      61.988   9.925   3.841  1.00  0.00     0.082 A 
HETATM    2  S   UNL     1      63.106   9.485   5.060  1.00  0.00    -0.076 SA
HETATM    3  C   UNL     1      62.591   7.852   5.060  1.00  0.00     0.041 A 
HETATM    4  C   UNL     1      61.238   8.836   3.439  1.00  0.00     0.028 A 
HETATM    5  C   UNL     1      61.588   7.643   4.138  1.00  0.00     0.027 A 
ENDROOT
BRANCH   1   6
HETATM    6  C   UNL     1      61.943  11.291   3.378  1.00  0.00     0.216 C 
HETATM    7  O   UNL     1      61.978  11.719   2.233  1.00  0.00    -0.643 OA
HETATM    8  O   UNL     1      61.848  12.161   4.411  1.00  0.00    -0.643 OA
ENDBRANCH   1   6
BRANCH   3   9
HETATM    9  S   UNL     1      63.360   6.674   6.114  1.00  0.00    -0.127 SA
HETATM   10  C   UNL     1      65.076   7.230   6.144  1.00  0.00     0.096 C 
ENDBRANCH   3   9
TORSDOF 2
ENDMDL
MODEL 3
REMARK VINA RESULT:      -4.0      1.355      1.740
REMARK  2 active torsions:
REMARK  status: ('A' for Active; 'I' for Inactive)
REMARK    1  A    between atoms: C_1  and  C_4 
REMARK    2  A    between atoms: C_3  and  S_8 
ROOT
HETATM    1  C   UNL     1      62.051  10.058   3.484  1.00  0.00     0.082 A 
HETATM    2  S   UNL     1      61.610   8.414   3.663  1.00  0.00    -0.076 SA
HETATM    3  C   UNL     1      61.376   8.207   1.980  1.00  0.00     0.041 A 
HETATM    4  C   UNL     1      62.023  10.438   2.155  1.00  0.00     0.028 A 
HETATM    5  C   UNL     1      61.638   9.371   1.290  1.00  0.00     0.027 A 
ENDROOT
BRANCH   1   6
HETATM    6  C   UNL     1      62.391  10.834   4.653  1.00  0.00     0.216 C 
HETATM    7  O   UNL     1      63.009  10.493   5.651  1.00  0.00    -0.643 OA
HETATM    8  O   UNL     1      61.927  12.102   4.557  1.00  0.00    -0.643 OA
ENDBRANCH   1   6
BRANCH   3   9
HETATM    9  S   UNL     1      60.909   6.641   1.329  1.00  0.00    -0.127 SA
HETATM   10  C   UNL     1      59.560   7.066   0.209  1.00  0.00     0.096 C 
ENDBRANCH   3   9
TORSDOF 2
ENDMDL
MODEL 4
REMARK VINA RESULT:      -4.0      1.546      2.163
REMARK  2 active torsions:
REMARK  status: ('A' for Active; 'I' for Inactive)
REMARK    1  A    between atoms: C_1  and  C_4 
REMARK    2  A    between atoms: C_3  and  S_8 
ROOT
HETATM    1  C   UNL     1      63.087   9.788   4.671  1.00  0.00     0.082 A 
HETATM    2  S   UNL     1      62.146   9.446   3.283  1.00  0.00    -0.076 SA
HETATM    3  C   UNL     1      62.963   7.971   2.989  1.00  0.00     0.041 A 
HETATM    4  C   UNL     1      64.008   8.784   4.906  1.00  0.00     0.028 A 
HETATM    5  C   UNL     1      63.933   7.737   3.940  1.00  0.00     0.027 A 
ENDROOT
BRANCH   1   6
HETATM    6  C   UNL     1      62.843  11.001   5.414  1.00  0.00     0.216 C 
HETATM    7  O   UNL     1      63.241  11.318   6.526  1.00  0.00    -0.643 OA
HETATM    8  O   UNL     1      62.057  11.857   4.719  1.00  0.00    -0.643 OA
ENDBRANCH   1   6
BRANCH   3   9
HETATM    9  S   UNL     1      62.496   6.945   1.640  1.00  0.00    -0.127 SA
HETATM   10  C   UNL     1      62.200   8.139   0.320  1.00  0.00     0.096 C 
ENDBRANCH   3   9
TORSDOF 2
ENDMDL
MODEL 5
REMARK VINA RESULT:      -4.0      1.843      2.043
REMARK  2 active torsions:
REMARK  status: ('A' for Active; 'I' for Inactive)
REMARK    1  A    between atoms: C_1  and  C_4 
REMARK    2  A    between atoms: C_3  and  S_8 
ROOT
HETATM    1  C   UNL     1      62.960   9.699   4.503  1.00  0.00     0.082 A 
HETATM    2  S   UNL     1      64.261   8.655   4.887  1.00  0.00    -0.076 SA
HETATM    3  C   UNL     1      63.831   7.535   3.666  1.00  0.00     0.041 A 
HETATM    4  C   UNL     1      62.213   9.198   3.453  1.00  0.00     0.028 A 
HETATM    5  C   UNL     1      62.718   7.953   2.970  1.00  0.00     0.027 A 
ENDROOT
BRANCH   1   6
HETATM    6  C   UNL     1      62.783  10.919   5.254  1.00  0.00     0.216 C 
HETATM    7  O   UNL     1      63.225  11.219   6.354  1.00  0.00    -0.643 OA
HETATM    8  O   UNL     1      62.011  11.806   4.582  1.00  0.00    -0.643 OA
ENDBRANCH   1   6
BRANCH   3   9
HETATM    9  S   UNL     1      64.799   6.091   3.398  1.00  0.00    -0.127 SA
HETATM   10  C   UNL     1      66.381   6.532   4.143  1.00  0.00     0.096 C 
ENDBRANCH   3   9
TORSDOF 2
ENDMDL
MODEL 6
REMARK VINA RESULT:      -3.8      2.131      2.781
REMARK  2 active torsions:
REMARK  status: ('A' for Active; 'I' for Inactive)
REMARK    1  A    between atoms: C_1  and  C_4 
REMARK    2  A    between atoms: C_3  and  S_8 
ROOT
HETATM    1  C   UNL     1      62.226  10.008   3.896  1.00  0.00     0.082 A 
HETATM    2  S   UNL     1      61.394   8.698   3.175  1.00  0.00    -0.076 SA
HETATM    3  C   UNL     1      62.149   7.548   4.193  1.00  0.00     0.041 A 
HETATM    4  C   UNL     1      63.065   9.568   4.904  1.00  0.00     0.028 A 
HETATM    5  C   UNL     1      63.017   8.153   5.076  1.00  0.00     0.027 A 
ENDROOT
BRANCH   1   6
HETATM    6  C   UNL     1      61.986  11.349   3.422  1.00  0.00     0.216 C 
HETATM    7  O   UNL     1      61.914  11.760   2.273  1.00  0.00    -0.643 OA
HETATM    8  O   UNL     1      61.829  12.216   4.450  1.00  0.00    -0.643 OA
ENDBRANCH   1   6
BRANCH   3   9
HETATM    9  S   UNL     1      61.746   5.840   4.065  1.00  0.00    -0.127 SA
HETATM   10  C   UNL     1      60.170   5.871   3.188  1.00  0.00     0.096 C 
ENDBRANCH   3   9
TORSDOF 2
ENDMDL
MODEL 7
REMARK VINA RESULT:      -3.7      5.086      6.013
REMARK  2 active torsions:
REMARK  status: ('A' for Active; 'I' for Inactive)
REMARK    1  A    between atoms: C_1  and  C_4 
REMARK    2  A    between atoms: C_3  and  S_8 
ROOT
HETATM    1  C   UNL     1      65.804   7.853   5.443  1.00  0.00     0.082 A 
HETATM    2  S   UNL     1      65.771   6.914   6.874  1.00  0.00    -0.076 SA
HETATM    3  C   UNL     1      67.275   6.174   6.524  1.00  0.00     0.041 A 
HETATM    4  C   UNL     1      66.952   7.605   4.714  1.00  0.00     0.028 A 
HETATM    5  C   UNL     1      67.800   6.642   5.338  1.00  0.00     0.027 A 
ENDROOT
BRANCH   1   6
HETATM    6  C   UNL     1      64.713   8.753   5.159  1.00  0.00     0.216 C 
HETATM    7  O   UNL     1      64.427   9.813   5.698  1.00  0.00    -0.643 OA
HETATM    8  O   UNL     1      63.944   8.294   4.144  1.00  0.00    -0.643 OA
ENDBRANCH   1   6
BRANCH   3   9
HETATM    9  S   UNL     1      67.981   5.015   7.641  1.00  0.00    -0.127 SA
HETATM   10  C   UNL     1      67.981   5.920   9.202  1.00  0.00     0.096 C 
ENDBRANCH   3   9
TORSDOF 2
ENDMDL
MODEL 8
REMARK VINA RESULT:      -3.6      1.636      2.211
REMARK  2 active torsions:
REMARK  status: ('A' for Active; 'I' for Inactive)
REMARK    1  A    between atoms: C_1  and  C_4 
REMARK    2  A    between atoms: C_3  and  S_8 
ROOT
HETATM    1  C   UNL     1      62.952   9.743   4.604  1.00  0.00     0.082 A 
HETATM    2  S   UNL     1      61.853   8.973   3.541  1.00  0.00    -0.076 SA
HETATM    3  C   UNL     1      62.844   7.585   3.388  1.00  0.00     0.041 A 
HETATM    4  C   UNL     1      64.056   8.945   4.840  1.00  0.00     0.028 A 
HETATM    5  C   UNL     1      63.991   7.702   4.143  1.00  0.00     0.027 A 
ENDROOT
BRANCH   1   6
HETATM    6  C   UNL     1      62.639  11.054   5.120  1.00  0.00     0.216 C 
HETATM    7  O   UNL     1      61.989  11.951   4.603  1.00  0.00    -0.643 OA
HETATM    8  O   UNL     1      63.174  11.242   6.350  1.00  0.00    -0.643 OA
ENDBRANCH   1   6
BRANCH   3   9
HETATM    9  S   UNL     1      62.328   6.224   2.401  1.00  0.00    -0.127 SA
HETATM   10  C   UNL     1      63.352   4.875   3.022  1.00  0.00     0.096 C 
ENDBRANCH   3   9
TORSDOF 2
ENDMDL
MODEL 9
REMARK VINA RESULT:      -3.6      2.481      3.026
REMARK  2 active torsions:
REMARK  status: ('A' for Active; 'I' for Inactive)
REMARK    1  A    between atoms: C_1  and  C_4 
REMARK    2  A    between atoms: C_3  and  S_8 
ROOT
HETATM    1  C   UNL     1      63.548   8.857   4.900  1.00  0.00     0.082 A 
HETATM    2  S   UNL     1      63.201   8.031   3.441  1.00  0.00    -0.076 SA
HETATM    3  C   UNL     1      62.153   9.268   2.892  1.00  0.00     0.041 A 
HETATM    4  C   UNL     1      62.875  10.063   4.960  1.00  0.00     0.028 A 
HETATM    5  C   UNL     1      62.075  10.300   3.802  1.00  0.00     0.027 A 
ENDROOT
BRANCH   1   6
HETATM    6  C   UNL     1      64.451   8.261   5.855  1.00  0.00     0.216 C 
HETATM    7  O   UNL     1      64.266   7.310   6.602  1.00  0.00    -0.643 OA
HETATM    8  O   UNL     1      65.646   8.897   5.870  1.00  0.00    -0.643 OA
ENDBRANCH   1   6
BRANCH   3   9
HETATM    9  S   UNL     1      61.372   9.145   1.321  1.00  0.00    -0.127 SA
HETATM   10  C   UNL     1      61.362   7.366   1.023  1.00  0.00     0.096 C 
ENDBRANCH   3   9
TORSDOF 2
ENDMDL
