MODEL 1
REMARK VINA RESULT:      -4.9      0.000      0.000
REMARK  1 active torsions:
REMARK  status: ('A' for Active; 'I' for Inactive)
REMARK    1  A    between atoms: C_3  and  C_7 
ROOT
HETATM    1  N   UNL     1      62.130   7.403   5.339  1.00  0.00    -0.351 N 
ATOM      2  HN  UNL     1      61.171   7.192   5.059  1.00  0.00     0.166 HD
HETATM    3  C   UNL     1      62.936   8.409   4.855  1.00  0.00     0.059 A 
HETATM    4  N   UNL     1      64.087   7.343   6.369  1.00  0.00    -0.360 N 
HETATM    5  C   UNL     1      62.854   6.773   6.235  1.00  0.00     0.180 A 
HETATM    6  C   UNL     1      64.157   8.390   5.493  1.00  0.00     0.119 A 
HETATM    7  H   UNL     1      64.797   7.050   6.986  1.00  0.00     0.166 HD
ENDROOT
BRANCH   3   8
HETATM    8  C   UNL     1      62.515   9.368   3.849  1.00  0.00    -0.008 A 
HETATM    9  C   UNL     1      62.228  10.687   4.226  1.00  0.00     0.014 A 
HETATM   10  C   UNL     1      61.856  11.636   3.270  1.00  0.00     0.001 A 
HETATM   11  C   UNL     1      61.753  11.270   1.929  1.00  0.00     0.000 A 
HETATM   12  C   UNL     1      62.014   9.956   1.545  1.00  0.00     0.001 A 
HETATM   13  C   UNL     1      62.393   9.009   2.499  1.00  0.00     0.014 A 
ENDBRANCH   3   8
TORSDOF 1
ENDMDL
MODEL 2
REMARK VINA RESULT:      -4.9      0.857      1.292
REMARK  1 active torsions:
REMARK  status: ('A' for Active; 'I' for Inactive)
REMARK    1  A    between atoms: C_3  and  C_7 
ROOT
HETATM    1  N   UNL     1      64.936   8.397   5.118  1.00  0.00    -0.351 N 
ATOM      2  HN  UNL     1      65.641   8.870   4.551  1.00  0.00     0.166 HD
HETATM    3  C   UNL     1      63.568   8.485   4.989  1.00  0.00     0.059 A 
HETATM    4  N   UNL     1      63.966   7.113   6.637  1.00  0.00    -0.360 N 
HETATM    5  C   UNL     1      65.143   7.578   6.124  1.00  0.00     0.180 A 
HETATM    6  C   UNL     1      62.948   7.684   5.924  1.00  0.00     0.119 A 
HETATM    7  H   UNL     1      63.870   6.482   7.386  1.00  0.00     0.166 HD
ENDROOT
BRANCH   3   8
HETATM    8  C   UNL     1      62.902   9.280   3.973  1.00  0.00    -0.008 A 
HETATM    9  C   UNL     1      62.480  10.581   4.277  1.00  0.00     0.014 A 
HETATM   10  C   UNL     1      61.869  11.377   3.304  1.00  0.00     0.001 A 
HETATM   11  C   UNL     1      61.662  10.873   2.021  1.00  0.00     0.000 A 
HETATM   12  C   UNL     1      62.057   9.573   1.713  1.00  0.00     0.001 A 
HETATM   13  C   UNL     1      62.674   8.780   2.683  1.00  0.00     0.014 A 
ENDBRANCH   3   8
TORSDOF 1
ENDMDL
MODEL 3
REMARK VINA RESULT:      -4.7      1.164      2.220
REMARK  1 active torsions:
REMARK  status: ('A' for Active; 'I' for Inactive)
REMARK    1  A    between atoms: C_3  and  C_7 
ROOT
HETATM    1  N   UNL     1      65.262   8.218   5.813  1.00  0.00    -0.351 N 
ATOM      2  HN  UNL     1      65.917   8.951   5.542  1.00  0.00     0.166 HD
HETATM    3  C   UNL     1      63.927   8.132   5.487  1.00  0.00     0.059 A 
HETATM    4  N   UNL     1      64.404   6.376   6.690  1.00  0.00    -0.360 N 
HETATM    5  C   UNL     1      65.514   7.158   6.547  1.00  0.00     0.180 A 
HETATM    6  C   UNL     1      63.379   6.984   6.020  1.00  0.00     0.119 A 
HETATM    7  H   UNL     1      64.352   5.528   7.188  1.00  0.00     0.166 HD
ENDROOT
BRANCH   3   8
HETATM    8  C   UNL     1      63.233   9.102   4.659  1.00  0.00    -0.008 A 
HETATM    9  C   UNL     1      62.881   8.765   3.345  1.00  0.00     0.014 A 
HETATM   10  C   UNL     1      62.182   9.670   2.542  1.00  0.00     0.001 A 
HETATM   11  C   UNL     1      61.841  10.926   3.041  1.00  0.00     0.000 A 
HETATM   12  C   UNL     1      62.205  11.280   4.339  1.00  0.00     0.001 A 
HETATM   13  C   UNL     1      62.898  10.374   5.144  1.00  0.00     0.014 A 
ENDBRANCH   3   8
TORSDOF 1
ENDMDL
MODEL 4
REMARK VINA RESULT:      -4.5      2.074      3.178
REMARK  1 active torsions:
REMARK  status: ('A' for Active; 'I' for Inactive)
REMARK    1  A    between atoms: C_3  and  C_7 
ROOT
HETATM    1  N   UNL     1      62.192  10.805   4.022  1.00  0.00    -0.351 N 
ATOM      2  HN  UNL     1      61.612  11.297   3.341  1.00  0.00     0.166 HD
HETATM    3  C   UNL     1      62.769   9.563   3.882  1.00  0.00     0.059 A 
HETATM    4  N   UNL     1      63.345  10.316   5.846  1.00  0.00    -0.360 N 
HETATM    5  C   UNL     1      62.544  11.225   5.216  1.00  0.00     0.180 A 
HETATM    6  C   UNL     1      63.498   9.247   5.008  1.00  0.00     0.119 A 
HETATM    7  H   UNL     1      63.739  10.415   6.743  1.00  0.00     0.166 HD
ENDROOT
BRANCH   3   8
HETATM    8  C   UNL     1      62.648   8.746   2.688  1.00  0.00    -0.008 A 
HETATM    9  C   UNL     1      62.124   9.306   1.515  1.00  0.00     0.014 A 
HETATM   10  C   UNL     1      62.032   8.549   0.344  1.00  0.00     0.001 A 
HETATM   11  C   UNL     1      62.450   7.219   0.340  1.00  0.00     0.000 A 
HETATM   12  C   UNL     1      62.953   6.644   1.506  1.00  0.00     0.001 A 
HETATM   13  C   UNL     1      63.052   7.403   2.674  1.00  0.00     0.014 A 
ENDBRANCH   3   8
TORSDOF 1
ENDMDL
MODEL 5
REMARK VINA RESULT:      -4.2      2.553      5.113
REMARK  1 active torsions:
REMARK  status: ('A' for Active; 'I' for Inactive)
REMARK    1  A    between atoms: C_3  and  C_7 
ROOT
HETATM    1  N   UNL     1      63.983   9.898   5.681  1.00  0.00    -0.351 N 
ATOM      2  HN  UNL     1      64.561  10.177   6.474  1.00  0.00     0.166 HD
HETATM    3  C   UNL     1      64.199   8.842   4.823  1.00  0.00     0.059 A 
HETATM    4  N   UNL     1      62.354   9.815   4.185  1.00  0.00    -0.360 N 
HETATM    5  C   UNL     1      62.877  10.469   5.264  1.00  0.00     0.180 A 
HETATM    6  C   UNL     1      63.188   8.772   3.889  1.00  0.00     0.119 A 
HETATM    7  H   UNL     1      61.527  10.053   3.707  1.00  0.00     0.166 HD
ENDROOT
BRANCH   3   8
HETATM    8  C   UNL     1      65.317   7.923   4.940  1.00  0.00    -0.008 A 
HETATM    9  C   UNL     1      65.450   6.874   4.020  1.00  0.00     0.014 A 
HETATM   10  C   UNL     1      66.537   5.999   4.091  1.00  0.00     0.001 A 
HETATM   11  C   UNL     1      67.494   6.156   5.093  1.00  0.00     0.000 A 
HETATM   12  C   UNL     1      67.360   7.181   6.027  1.00  0.00     0.001 A 
HETATM   13  C   UNL     1      66.278   8.061   5.952  1.00  0.00     0.014 A 
ENDBRANCH   3   8
TORSDOF 1
ENDMDL
MODEL 6
REMARK VINA RESULT:      -4.1      1.940      4.673
REMARK  1 active torsions:
REMARK  status: ('A' for Active; 'I' for Inactive)
REMARK    1  A    between atoms: C_3  and  C_7 
ROOT
HETATM    1  N   UNL     1      62.710  10.845   5.038  1.00  0.00    -0.351 N 
ATOM      2  HN  UNL     1      63.109  11.183   5.914  1.00  0.00     0.166 HD
HETATM    3  C   UNL     1      62.811   9.578   4.510  1.00  0.00     0.059 A 
HETATM    4  N   UNL     1      61.601  10.751   3.125  1.00  0.00    -0.360 N 
HETATM    5  C   UNL     1      61.990  11.529   4.178  1.00  0.00     0.180 A 
HETATM    6  C   UNL     1      62.118   9.500   3.320  1.00  0.00     0.119 A 
HETATM    7  H   UNL     1      61.049  11.041   2.363  1.00  0.00     0.166 HD
ENDROOT
BRANCH   3   8
HETATM    8  C   UNL     1      63.514   8.486   5.159  1.00  0.00    -0.008 A 
HETATM    9  C   UNL     1      64.915   8.491   5.199  1.00  0.00     0.014 A 
HETATM   10  C   UNL     1      65.611   7.469   5.850  1.00  0.00     0.001 A 
HETATM   11  C   UNL     1      64.913   6.423   6.453  1.00  0.00     0.000 A 
HETATM   12  C   UNL     1      63.520   6.396   6.399  1.00  0.00     0.001 A 
HETATM   13  C   UNL     1      62.824   7.421   5.756  1.00  0.00     0.014 A 
ENDBRANCH   3   8
TORSDOF 1
ENDMDL
MODEL 7
REMARK VINA RESULT:      -4.0      2.130      4.489
REMARK  1 active torsions:
REMARK  status: ('A' for Active; 'I' for Inactive)
REMARK    1  A    between atoms: C_3  and  C_7 
ROOT
HETATM    1  N   UNL     1      62.390   9.242   2.055  1.00  0.00    -0.351 N 
ATOM      2  HN  UNL     1      62.657   8.487   1.422  1.00  0.00     0.166 HD
HETATM    3  C   UNL     1      62.550   9.278   3.422  1.00  0.00     0.059 A 
HETATM    4  N   UNL     1      61.626  11.166   2.838  1.00  0.00    -0.360 N 
HETATM    5  C   UNL     1      61.820  10.382   1.737  1.00  0.00     0.180 A 
HETATM    6  C   UNL     1      62.087  10.475   3.925  1.00  0.00     0.119 A 
HETATM    7  H   UNL     1      61.226  12.065   2.846  1.00  0.00     0.166 HD
ENDROOT
BRANCH   3   8
HETATM    8  C   UNL     1      63.167   8.213   4.192  1.00  0.00    -0.008 A 
HETATM    9  C   UNL     1      62.874   8.085   5.556  1.00  0.00     0.014 A 
HETATM   10  C   UNL     1      63.428   7.045   6.308  1.00  0.00     0.001 A 
HETATM   11  C   UNL     1      64.292   6.132   5.705  1.00  0.00     0.000 A 
HETATM   12  C   UNL     1      64.609   6.263   4.354  1.00  0.00     0.001 A 
HETATM   13  C   UNL     1      64.050   7.297   3.600  1.00  0.00     0.014 A 
ENDBRANCH   3   8
TORSDOF 1
ENDMDL
MODEL 8
REMARK VINA RESULT:      -4.0      1.915      2.527
REMARK  1 active torsions:
REMARK  status: ('A' for Active; 'I' for Inactive)
REMARK    1  A    between atoms: C_3  and  C_7 
ROOT
HETATM    1  N   UNL     1      64.748   7.434   4.287  1.00  0.00    -0.351 N 
ATOM      2  HN  UNL     1      65.067   6.614   3.771  1.00  0.00     0.166 HD
HETATM    3  C   UNL     1      63.733   8.297   3.937  1.00  0.00     0.059 A 
HETATM    4  N   UNL     1      64.537   8.996   5.840  1.00  0.00    -0.360 N 
HETATM    5  C   UNL     1      65.219   7.888   5.426  1.00  0.00     0.180 A 
HETATM    6  C   UNL     1      63.584   9.273   4.899  1.00  0.00     0.119 A 
HETATM    7  H   UNL     1      64.703   9.505   6.667  1.00  0.00     0.166 HD
ENDROOT
BRANCH   3   8
HETATM    8  C   UNL     1      62.923   8.147   2.741  1.00  0.00    -0.008 A 
HETATM    9  C   UNL     1      62.151   9.226   2.288  1.00  0.00     0.014 A 
HETATM   10  C   UNL     1      61.392   9.116   1.120  1.00  0.00     0.001 A 
HETATM   11  C   UNL     1      61.386   7.921   0.402  1.00  0.00     0.000 A 
HETATM   12  C   UNL     1      62.132   6.834   0.855  1.00  0.00     0.001 A 
HETATM   13  C   UNL     1      62.896   6.946   2.019  1.00  0.00     0.014 A 
ENDBRANCH   3   8
TORSDOF 1
ENDMDL
MODEL 9
REMARK VINA RESULT:      -3.9      2.575      3.935
REMARK  1 active torsions:
REMARK  status: ('A' for Active; 'I' for Inactive)
REMARK    1  A    between atoms: C_3  and  C_7 
ROOT
HETATM    1  N   UNL     1      63.012   6.913   1.259  1.00  0.00    -0.351 N 
ATOM      2  HN  UNL     1      63.957   7.050   1.619  1.00  0.00     0.166 HD
HETATM    3  C   UNL     1      61.923   7.734   1.441  1.00  0.00     0.059 A 
HETATM    4  N   UNL     1      61.262   6.066   0.201  1.00  0.00    -0.360 N 
HETATM    5  C   UNL     1      62.580   5.914   0.523  1.00  0.00     0.180 A 
HETATM    6  C   UNL     1      60.825   7.225   0.781  1.00  0.00     0.119 A 
HETATM    7  H   UNL     1      60.725   5.451  -0.349  1.00  0.00     0.166 HD
ENDROOT
BRANCH   3   8
HETATM    8  C   UNL     1      61.965   8.979   2.188  1.00  0.00    -0.008 A 
HETATM    9  C   UNL     1      61.774  10.195   1.519  1.00  0.00     0.014 A 
HETATM   10  C   UNL     1      61.775  11.402   2.224  1.00  0.00     0.001 A 
HETATM   11  C   UNL     1      61.983  11.405   3.602  1.00  0.00     0.000 A 
HETATM   12  C   UNL     1      62.197  10.203   4.275  1.00  0.00     0.001 A 
HETATM   13  C   UNL     1      62.189   8.996   3.572  1.00  0.00     0.014 A 
ENDBRANCH   3   8
TORSDOF 1
ENDMDL
