MODEL 1
REMARK VINA RESULT:      -5.1      0.000      0.000
REMARK  1 active torsions:
REMARK  status: ('A' for Active; 'I' for Inactive)
REMARK    1  A    between atoms: C_3  and  C_7 
ROOT
HETATM    1  C   UNL     1      63.113   8.672   4.688  1.00  0.00    -0.001 A 
HETATM    2  C   UNL     1      62.794   8.401   3.349  1.00  0.00     0.015 A 
HETATM    3  C   UNL     1      62.880   9.963   5.180  1.00  0.00     0.015 A 
HETATM    4  C   UNL     1      62.376  10.966   4.346  1.00  0.00     0.007 A 
HETATM    5  C   UNL     1      62.289   9.401   2.516  1.00  0.00     0.007 A 
HETATM    6  C   UNL     1      62.090  10.695   3.004  1.00  0.00    -0.062 A 
HETATM    7  C   UNL     1      61.602  11.788   2.103  1.00  0.00     0.048 C 
ENDROOT
BRANCH   1   8
HETATM    8  C   UNL     1      63.695   7.631   5.520  1.00  0.00     0.102 A 
HETATM    9  C   UNL     1      63.400   6.309   5.784  1.00  0.00     0.127 A 
HETATM   10  N   UNL     1      64.310   5.781   6.662  1.00  0.00    -0.354 N 
HETATM   11  C   UNL     1      65.119   6.787   6.896  1.00  0.00     0.233 A 
ATOM     12  HN  UNL     1      64.349   4.835   7.042  1.00  0.00     0.166 HD
HETATM   13  O   UNL     1      64.820   7.941   6.241  1.00  0.00    -0.304 OA
ENDBRANCH   1   8
TORSDOF 1
ENDMDL
MODEL 2
REMARK VINA RESULT:      -5.0      1.667      2.090
REMARK  1 active torsions:
REMARK  status: ('A' for Active; 'I' for Inactive)
REMARK    1  A    between atoms: C_3  and  C_7 
ROOT
HETATM    1  C   UNL     1      64.338   8.128   4.927  1.00  0.00    -0.001 A 
HETATM    2  C   UNL     1      64.149   7.312   3.802  1.00  0.00     0.015 A 
HETATM    3  C   UNL     1      63.570   9.294   5.040  1.00  0.00     0.015 A 
HETATM    4  C   UNL     1      62.664   9.654   4.037  1.00  0.00     0.007 A 
HETATM    5  C   UNL     1      63.245   7.669   2.800  1.00  0.00     0.007 A 
HETATM    6  C   UNL     1      62.506   8.850   2.903  1.00  0.00    -0.062 A 
HETATM    7  C   UNL     1      61.574   9.270   1.807  1.00  0.00     0.048 C 
ENDROOT
BRANCH   1   8
HETATM    8  C   UNL     1      65.330   7.767   5.927  1.00  0.00     0.102 A 
HETATM    9  C   UNL     1      66.682   7.992   6.091  1.00  0.00     0.127 A 
HETATM   10  N   UNL     1      67.126   7.417   7.253  1.00  0.00    -0.354 N 
HETATM   11  C   UNL     1      66.041   6.872   7.751  1.00  0.00     0.233 A 
ATOM     12  HN  UNL     1      68.070   7.413   7.638  1.00  0.00     0.166 HD
HETATM   13  O   UNL     1      64.911   7.042   7.013  1.00  0.00    -0.304 OA
ENDBRANCH   1   8
TORSDOF 1
ENDMDL
MODEL 3
REMARK VINA RESULT:      -4.4      2.367      5.431
REMARK  1 active torsions:
REMARK  status: ('A' for Active; 'I' for Inactive)
REMARK    1  A    between atoms: C_3  and  C_7 
ROOT
HETATM    1  C   UNL     1      65.001   7.921   5.489  1.00  0.00    -0.001 A 
HETATM    2  C   UNL     1      64.670   6.977   6.473  1.00  0.00     0.015 A 
HETATM    3  C   UNL     1      66.313   7.942   5.000  1.00  0.00     0.015 A 
HETATM    4  C   UNL     1      67.279   7.067   5.507  1.00  0.00     0.007 A 
HETATM    5  C   UNL     1      65.633   6.102   6.979  1.00  0.00     0.007 A 
HETATM    6  C   UNL     1      66.948   6.150   6.510  1.00  0.00    -0.062 A 
HETATM    7  C   UNL     1      68.001   5.253   7.087  1.00  0.00     0.048 C 
ENDROOT
BRANCH   1   8
HETATM    8  C   UNL     1      63.997   8.864   5.022  1.00  0.00     0.102 A 
HETATM    9  C   UNL     1      63.121   8.914   3.956  1.00  0.00     0.127 A 
HETATM   10  N   UNL     1      62.372  10.060   4.005  1.00  0.00    -0.354 N 
HETATM   11  C   UNL     1      62.809  10.658   5.088  1.00  0.00     0.233 A 
ATOM     12  HN  UNL     1      61.648  10.373   3.357  1.00  0.00     0.166 HD
HETATM   13  O   UNL     1      63.789   9.999   5.764  1.00  0.00    -0.304 OA
ENDBRANCH   1   8
TORSDOF 1
ENDMDL
MODEL 4
REMARK VINA RESULT:      -4.4      2.158      2.993
REMARK  1 active torsions:
REMARK  status: ('A' for Active; 'I' for Inactive)
REMARK    1  A    between atoms: C_3  and  C_7 
ROOT
HETATM    1  C   UNL     1      64.586   7.505   5.867  1.00  0.00    -0.001 A 
HETATM    2  C   UNL     1      63.375   6.855   6.146  1.00  0.00     0.015 A 
HETATM    3  C   UNL     1      64.606   8.470   4.852  1.00  0.00     0.015 A 
HETATM    4  C   UNL     1      63.454   8.750   4.110  1.00  0.00     0.007 A 
HETATM    5  C   UNL     1      62.224   7.135   5.407  1.00  0.00     0.007 A 
HETATM    6  C   UNL     1      62.258   8.074   4.374  1.00  0.00    -0.062 A 
HETATM    7  C   UNL     1      61.043   8.342   3.539  1.00  0.00     0.048 C 
ENDROOT
BRANCH   1   8
HETATM    8  C   UNL     1      65.786   7.152   6.609  1.00  0.00     0.102 A 
HETATM    9  C   UNL     1      67.112   6.948   6.286  1.00  0.00     0.127 A 
HETATM   10  N   UNL     1      67.836   6.637   7.407  1.00  0.00    -0.354 N 
HETATM   11  C   UNL     1      66.937   6.668   8.362  1.00  0.00     0.233 A 
ATOM     12  HN  UNL     1      68.833   6.432   7.482  1.00  0.00     0.166 HD
HETATM   13  O   UNL     1      65.673   6.976   7.964  1.00  0.00    -0.304 OA
ENDBRANCH   1   8
TORSDOF 1
ENDMDL
MODEL 5
REMARK VINA RESULT:      -4.3      2.882      5.280
REMARK  1 active torsions:
REMARK  status: ('A' for Active; 'I' for Inactive)
REMARK    1  A    between atoms: C_3  and  C_7 
ROOT
HETATM    1  C   UNL     1      63.876   8.236   3.985  1.00  0.00    -0.001 A 
HETATM    2  C   UNL     1      64.593   8.719   5.090  1.00  0.00     0.015 A 
HETATM    3  C   UNL     1      64.179   6.956   3.504  1.00  0.00     0.015 A 
HETATM    4  C   UNL     1      65.196   6.194   4.088  1.00  0.00     0.007 A 
HETATM    5  C   UNL     1      65.607   7.960   5.675  1.00  0.00     0.007 A 
HETATM    6  C   UNL     1      65.927   6.697   5.169  1.00  0.00    -0.062 A 
HETATM    7  C   UNL     1      67.051   5.898   5.754  1.00  0.00     0.048 C 
ENDROOT
BRANCH   1   8
HETATM    8  C   UNL     1      62.866   9.070   3.354  1.00  0.00     0.102 A 
HETATM    9  C   UNL     1      62.047  10.100   3.770  1.00  0.00     0.127 A 
HETATM   10  N   UNL     1      61.273  10.546   2.731  1.00  0.00    -0.354 N 
HETATM   11  C   UNL     1      61.645   9.783   1.731  1.00  0.00     0.233 A 
ATOM     12  HN  UNL     1      60.575  11.290   2.734  1.00  0.00     0.166 HD
HETATM   13  O   UNL     1      62.609   8.868   2.022  1.00  0.00    -0.304 OA
ENDBRANCH   1   8
TORSDOF 1
ENDMDL
MODEL 6
REMARK VINA RESULT:      -4.3      2.679      4.993
REMARK  1 active torsions:
REMARK  status: ('A' for Active; 'I' for Inactive)
REMARK    1  A    between atoms: C_3  and  C_7 
ROOT
HETATM    1  C   UNL     1      64.702   8.071   4.702  1.00  0.00    -0.001 A 
HETATM    2  C   UNL     1      64.542   7.010   3.799  1.00  0.00     0.015 A 
HETATM    3  C   UNL     1      65.775   8.022   5.602  1.00  0.00     0.015 A 
HETATM    4  C   UNL     1      66.642   6.925   5.622  1.00  0.00     0.007 A 
HETATM    5  C   UNL     1      65.407   5.915   3.816  1.00  0.00     0.007 A 
HETATM    6  C   UNL     1      66.456   5.858   4.738  1.00  0.00    -0.062 A 
HETATM    7  C   UNL     1      67.356   4.662   4.802  1.00  0.00     0.048 C 
ENDROOT
BRANCH   1   8
HETATM    8  C   UNL     1      63.751   9.171   4.706  1.00  0.00     0.102 A 
HETATM    9  C   UNL     1      62.680   9.542   3.920  1.00  0.00     0.127 A 
HETATM   10  N   UNL     1      62.113  10.696   4.395  1.00  0.00    -0.354 N 
HETATM   11  C   UNL     1      62.848  10.980   5.444  1.00  0.00     0.233 A 
ATOM     12  HN  UNL     1      61.314  11.209   4.024  1.00  0.00     0.166 HD
HETATM   13  O   UNL     1      63.857  10.105   5.705  1.00  0.00    -0.304 OA
ENDBRANCH   1   8
TORSDOF 1
ENDMDL
MODEL 7
REMARK VINA RESULT:      -4.2     11.854     13.447
REMARK  1 active torsions:
REMARK  status: ('A' for Active; 'I' for Inactive)
REMARK    1  A    between atoms: C_3  and  C_7 
ROOT
HETATM    1  C   UNL     1      56.938   1.912  13.444  1.00  0.00    -0.001 A 
HETATM    2  C   UNL     1      57.750   2.392  12.406  1.00  0.00     0.015 A 
HETATM    3  C   UNL     1      57.416   0.856  14.230  1.00  0.00     0.015 A 
HETATM    4  C   UNL     1      58.657   0.270  13.961  1.00  0.00     0.007 A 
HETATM    5  C   UNL     1      58.990   1.809  12.137  1.00  0.00     0.007 A 
HETATM    6  C   UNL     1      59.446   0.734  12.903  1.00  0.00    -0.062 A 
HETATM    7  C   UNL     1      60.750   0.066  12.588  1.00  0.00     0.048 C 
ENDROOT
BRANCH   1   8
HETATM    8  C   UNL     1      55.624   2.494  13.666  1.00  0.00     0.102 A 
HETATM    9  C   UNL     1      54.517   2.157  14.417  1.00  0.00     0.127 A 
HETATM   10  N   UNL     1      53.527   3.092  14.260  1.00  0.00    -0.354 N 
HETATM   11  C   UNL     1      54.062   3.957  13.432  1.00  0.00     0.233 A 
ATOM     12  HN  UNL     1      52.600   3.110  14.685  1.00  0.00     0.166 HD
HETATM   13  O   UNL     1      55.329   3.673  13.028  1.00  0.00    -0.304 OA
ENDBRANCH   1   8
TORSDOF 1
ENDMDL
MODEL 8
REMARK VINA RESULT:      -4.0      3.257      5.105
REMARK  1 active torsions:
REMARK  status: ('A' for Active; 'I' for Inactive)
REMARK    1  A    between atoms: C_3  and  C_7 
ROOT
HETATM    1  C   UNL     1      62.667   8.063   3.293  1.00  0.00    -0.001 A 
HETATM    2  C   UNL     1      62.906   9.040   4.271  1.00  0.00     0.015 A 
HETATM    3  C   UNL     1      63.607   7.037   3.133  1.00  0.00     0.015 A 
HETATM    4  C   UNL     1      64.773   7.009   3.905  1.00  0.00     0.007 A 
HETATM    5  C   UNL     1      64.069   9.012   5.043  1.00  0.00     0.007 A 
HETATM    6  C   UNL     1      65.018   8.005   4.856  1.00  0.00    -0.062 A 
HETATM    7  C   UNL     1      66.294   7.998   5.641  1.00  0.00     0.048 C 
ENDROOT
BRANCH   1   8
HETATM    8  C   UNL     1      61.480   8.147   2.458  1.00  0.00     0.102 A 
HETATM    9  C   UNL     1      61.113   8.878   1.346  1.00  0.00     0.127 A 
HETATM   10  N   UNL     1      59.845   8.544   0.949  1.00  0.00    -0.354 N 
HETATM   11  C   UNL     1      59.489   7.630   1.820  1.00  0.00     0.233 A 
ATOM     12  HN  UNL     1      59.307   8.916   0.166  1.00  0.00     0.166 HD
HETATM   13  O   UNL     1      60.422   7.327   2.763  1.00  0.00    -0.304 OA
ENDBRANCH   1   8
TORSDOF 1
ENDMDL
MODEL 9
REMARK VINA RESULT:      -3.9      2.960      3.925
REMARK  1 active torsions:
REMARK  status: ('A' for Active; 'I' for Inactive)
REMARK    1  A    between atoms: C_3  and  C_7 
ROOT
HETATM    1  C   UNL     1      63.073   8.046   3.030  1.00  0.00    -0.001 A 
HETATM    2  C   UNL     1      62.179   9.101   2.793  1.00  0.00     0.015 A 
HETATM    3  C   UNL     1      63.837   8.073   4.204  1.00  0.00     0.015 A 
HETATM    4  C   UNL     1      63.738   9.144   5.097  1.00  0.00     0.007 A 
HETATM    5  C   UNL     1      62.078  10.170   3.685  1.00  0.00     0.007 A 
HETATM    6  C   UNL     1      62.867  10.207   4.837  1.00  0.00    -0.062 A 
HETATM    7  C   UNL     1      62.806  11.376   5.771  1.00  0.00     0.048 C 
ENDROOT
BRANCH   1   8
HETATM    8  C   UNL     1      63.206   6.975   2.056  1.00  0.00     0.102 A 
HETATM    9  C   UNL     1      63.891   5.778   2.004  1.00  0.00     0.127 A 
HETATM   10  N   UNL     1      63.645   5.136   0.819  1.00  0.00    -0.354 N 
HETATM   11  C   UNL     1      62.825   5.953   0.200  1.00  0.00     0.233 A 
ATOM     12  HN  UNL     1      64.010   4.240   0.496  1.00  0.00     0.166 HD
HETATM   13  O   UNL     1      62.505   7.086   0.882  1.00  0.00    -0.304 OA
ENDBRANCH   1   8
TORSDOF 1
ENDMDL
