MODEL 1
REMARK VINA RESULT:      -3.6      0.000      0.000
REMARK  2 active torsions:
REMARK  status: ('A' for Active; 'I' for Inactive)
REMARK    1  A    between atoms: C_1  and  C_2 
REMARK    2  A    between atoms: C_2  and  N_8 
ROOT
HETATM    1  C   UNL     1      64.000   8.872   5.014  1.00  0.00     0.085 A 
HETATM    2  N   UNL     1      63.741  10.011   5.722  1.00  0.00    -0.361 N 
ATOM      3  HN  UNL     1      64.224  10.234   6.592  1.00  0.00     0.165 HD
HETATM    4  N   UNL     1      62.384   9.407   3.301  1.00  0.00    -0.372 N 
ATOM      5  HN  UNL     1      61.896   9.191   2.432  1.00  0.00     0.164 HD
HETATM    6  C   UNL     1      63.329   8.585   3.828  1.00  0.00     0.120 A 
HETATM    7  C   UNL     1      62.799  10.825   5.189  1.00  0.00     0.105 A 
HETATM    8  C   UNL     1      62.136  10.532   4.008  1.00  0.00     0.104 A 
ENDROOT
BRANCH   1   9
HETATM    9  C   UNL     1      65.039   7.971   5.602  1.00  0.00     0.122 C 
HETATM   10  S   UNL     1      66.568   7.676   4.991  1.00  0.00    -0.059 SA
BRANCH   9  11
HETATM   11  N   UNL     1      64.674   7.332   6.763  1.00  0.00    -0.388 N 
HETATM   12  H   UNL     1      65.365   6.985   7.372  1.00  0.00     0.157 HD
HETATM   13  H   UNL     1      63.721   7.221   6.986  1.00  0.00     0.157 HD
ENDBRANCH   9  11
ENDBRANCH   1   9
TORSDOF 2
ENDMDL
MODEL 2
REMARK VINA RESULT:      -3.6      1.975      2.746
REMARK  2 active torsions:
REMARK  status: ('A' for Active; 'I' for Inactive)
REMARK    1  A    between atoms: C_1  and  C_2 
REMARK    2  A    between atoms: C_2  and  N_8 
ROOT
HETATM    1  C   UNL     1      62.750   9.203   3.986  1.00  0.00     0.085 A 
HETATM    2  N   UNL     1      62.864   8.461   2.845  1.00  0.00    -0.361 N 
ATOM      3  HN  UNL     1      63.301   7.540   2.835  1.00  0.00     0.165 HD
HETATM    4  N   UNL     1      61.643  11.025   2.854  1.00  0.00    -0.372 N 
ATOM      5  HN  UNL     1      61.204  11.947   2.856  1.00  0.00     0.164 HD
HETATM    6  C   UNL     1      62.150  10.459   3.981  1.00  0.00     0.120 A 
HETATM    7  C   UNL     1      62.355   9.033   1.728  1.00  0.00     0.105 A 
HETATM    8  C   UNL     1      61.759  10.283   1.730  1.00  0.00     0.104 A 
ENDROOT
BRANCH   1   9
HETATM    9  C   UNL     1      63.313   8.574   5.222  1.00  0.00     0.122 C 
HETATM   10  S   UNL     1      62.648   7.309   6.091  1.00  0.00    -0.059 SA
BRANCH   9  11
HETATM   11  N   UNL     1      64.498   9.110   5.666  1.00  0.00    -0.388 N 
HETATM   12  H   UNL     1      65.335   8.599   5.574  1.00  0.00     0.157 HD
HETATM   13  H   UNL     1      64.511  10.005   6.077  1.00  0.00     0.157 HD
ENDBRANCH   9  11
ENDBRANCH   1   9
TORSDOF 2
ENDMDL
MODEL 3
REMARK VINA RESULT:      -3.5      2.400      3.786
REMARK  2 active torsions:
REMARK  status: ('A' for Active; 'I' for Inactive)
REMARK    1  A    between atoms: C_1  and  C_2 
REMARK    2  A    between atoms: C_2  and  N_8 
ROOT
HETATM    1  C   UNL     1      63.520   8.768   5.557  1.00  0.00     0.085 A 
HETATM    2  N   UNL     1      64.878   8.678   5.675  1.00  0.00    -0.361 N 
ATOM      3  HN  UNL     1      65.495   9.466   5.480  1.00  0.00     0.165 HD
HETATM    4  N   UNL     1      63.175   6.473   6.223  1.00  0.00    -0.372 N 
ATOM      5  HN  UNL     1      62.564   5.679   6.419  1.00  0.00     0.164 HD
HETATM    6  C   UNL     1      62.693   7.681   5.828  1.00  0.00     0.120 A 
HETATM    7  C   UNL     1      65.348   7.472   6.070  1.00  0.00     0.105 A 
HETATM    8  C   UNL     1      64.519   6.395   6.337  1.00  0.00     0.104 A 
ENDROOT
BRANCH   1   9
HETATM    9  C   UNL     1      62.997  10.100   5.119  1.00  0.00     0.122 C 
HETATM   10  S   UNL     1      62.012  10.403   3.802  1.00  0.00    -0.059 SA
BRANCH   9  11
HETATM   11  N   UNL     1      63.381  11.166   5.896  1.00  0.00    -0.388 N 
HETATM   12  H   UNL     1      64.338  11.355   6.036  1.00  0.00     0.157 HD
HETATM   13  H   UNL     1      62.700  11.743   6.313  1.00  0.00     0.157 HD
ENDBRANCH   9  11
ENDBRANCH   1   9
TORSDOF 2
ENDMDL
MODEL 4
REMARK VINA RESULT:      -3.5      2.143      4.486
REMARK  2 active torsions:
REMARK  status: ('A' for Active; 'I' for Inactive)
REMARK    1  A    between atoms: C_1  and  C_2 
REMARK    2  A    between atoms: C_2  and  N_8 
ROOT
HETATM    1  C   UNL     1      65.380   7.788   5.948  1.00  0.00     0.085 A 
HETATM    2  N   UNL     1      64.917   7.104   7.036  1.00  0.00    -0.361 N 
ATOM      3  HN  UNL     1      63.924   7.052   7.265  1.00  0.00     0.165 HD
HETATM    4  N   UNL     1      67.685   7.238   6.416  1.00  0.00    -0.372 N 
ATOM      5  HN  UNL     1      68.680   7.286   6.194  1.00  0.00     0.164 HD
HETATM    6  C   UNL     1      66.740   7.848   5.652  1.00  0.00     0.120 A 
HETATM    7  C   UNL     1      65.865   6.500   7.790  1.00  0.00     0.105 A 
HETATM    8  C   UNL     1      67.216   6.564   7.489  1.00  0.00     0.104 A 
ENDROOT
BRANCH   1   9
HETATM    9  C   UNL     1      64.335   8.458   5.114  1.00  0.00     0.122 C 
HETATM   10  S   UNL     1      63.596   7.837   3.748  1.00  0.00    -0.059 SA
BRANCH   9  11
HETATM   11  N   UNL     1      63.960   9.711   5.537  1.00  0.00    -0.388 N 
HETATM   12  H   UNL     1      63.023   9.890   5.778  1.00  0.00     0.157 HD
HETATM   13  H   UNL     1      64.630  10.431   5.599  1.00  0.00     0.157 HD
ENDBRANCH   9  11
ENDBRANCH   1   9
TORSDOF 2
ENDMDL
MODEL 5
REMARK VINA RESULT:      -3.4      1.763      1.763
REMARK  2 active torsions:
REMARK  status: ('A' for Active; 'I' for Inactive)
REMARK    1  A    between atoms: C_1  and  C_2 
REMARK    2  A    between atoms: C_2  and  N_8 
ROOT
HETATM    1  C   UNL     1      62.835   8.768   5.188  1.00  0.00     0.085 A 
HETATM    2  N   UNL     1      63.213   9.942   5.775  1.00  0.00    -0.361 N 
ATOM      3  HN  UNL     1      63.802   9.970   6.607  1.00  0.00     0.165 HD
HETATM    4  N   UNL     1      61.571   9.883   3.459  1.00  0.00    -0.372 N 
ATOM      5  HN  UNL     1      60.980   9.863   2.627  1.00  0.00     0.164 HD
HETATM    6  C   UNL     1      62.029   8.750   4.052  1.00  0.00     0.120 A 
HETATM    7  C   UNL     1      62.753  11.066   5.177  1.00  0.00     0.105 A 
HETATM    8  C   UNL     1      61.952  11.039   4.047  1.00  0.00     0.104 A 
ENDROOT
BRANCH   1   9
HETATM    9  C   UNL     1      63.341   7.525   5.848  1.00  0.00     0.122 C 
HETATM   10  S   UNL     1      62.530   6.068   5.991  1.00  0.00    -0.059 SA
BRANCH   9  11
HETATM   11  N   UNL     1      64.603   7.615   6.384  1.00  0.00    -0.388 N 
HETATM   12  H   UNL     1      64.768   8.200   7.159  1.00  0.00     0.157 HD
HETATM   13  H   UNL     1      65.343   7.095   5.994  1.00  0.00     0.157 HD
ENDBRANCH   9  11
ENDBRANCH   1   9
TORSDOF 2
ENDMDL
MODEL 6
REMARK VINA RESULT:      -3.4     12.493     13.264
REMARK  2 active torsions:
REMARK  status: ('A' for Active; 'I' for Inactive)
REMARK    1  A    between atoms: C_1  and  C_2 
REMARK    2  A    between atoms: C_2  and  N_8 
ROOT
HETATM    1  C   UNL     1      56.765   2.316  13.347  1.00  0.00     0.085 A 
HETATM    2  N   UNL     1      57.356   1.786  14.459  1.00  0.00    -0.361 N 
ATOM      3  HN  UNL     1      56.843   1.630  15.326  1.00  0.00     0.165 HD
HETATM    4  N   UNL     1      58.800   2.214  12.051  1.00  0.00    -0.372 N 
ATOM      5  HN  UNL     1      59.320   2.368  11.187  1.00  0.00     0.164 HD
HETATM    6  C   UNL     1      57.482   2.522  12.171  1.00  0.00     0.120 A 
HETATM    7  C   UNL     1      58.669   1.481  14.330  1.00  0.00     0.105 A 
HETATM    8  C   UNL     1      59.375   1.689  13.156  1.00  0.00     0.104 A 
ENDROOT
BRANCH   1   9
HETATM    9  C   UNL     1      55.315   2.655  13.487  1.00  0.00     0.122 C 
HETATM   10  S   UNL     1      54.186   2.744  12.256  1.00  0.00    -0.059 SA
BRANCH   9  11
HETATM   11  N   UNL     1      54.893   2.915  14.769  1.00  0.00    -0.388 N 
HETATM   12  H   UNL     1      55.405   3.533  15.340  1.00  0.00     0.157 HD
HETATM   13  H   UNL     1      54.079   2.484  15.117  1.00  0.00     0.157 HD
ENDBRANCH   9  11
ENDBRANCH   1   9
TORSDOF 2
ENDMDL
MODEL 7
REMARK VINA RESULT:      -3.4      2.365      3.744
REMARK  2 active torsions:
REMARK  status: ('A' for Active; 'I' for Inactive)
REMARK    1  A    between atoms: C_1  and  C_2 
REMARK    2  A    between atoms: C_2  and  N_8 
ROOT
HETATM    1  C   UNL     1      62.136   9.384   3.326  1.00  0.00     0.085 A 
HETATM    2  N   UNL     1      61.725  10.687   3.317  1.00  0.00    -0.361 N 
ATOM      3  HN  UNL     1      61.161  11.075   2.562  1.00  0.00     0.165 HD
HETATM    4  N   UNL     1      63.299   9.623   5.428  1.00  0.00    -0.372 N 
ATOM      5  HN  UNL     1      63.865   9.242   6.187  1.00  0.00     0.164 HD
HETATM    6  C   UNL     1      62.907   8.872   4.365  1.00  0.00     0.120 A 
HETATM    7  C   UNL     1      62.120  11.428   4.379  1.00  0.00     0.105 A 
HETATM    8  C   UNL     1      62.888  10.911   5.410  1.00  0.00     0.104 A 
ENDROOT
BRANCH   1   9
HETATM    9  C   UNL     1      61.702   8.564   2.152  1.00  0.00     0.122 C 
HETATM   10  S   UNL     1      62.497   7.240   1.510  1.00  0.00    -0.059 SA
BRANCH   9  11
HETATM   11  N   UNL     1      60.528   8.961   1.559  1.00  0.00    -0.388 N 
HETATM   12  H   UNL     1      59.942   9.611   2.012  1.00  0.00     0.157 HD
HETATM   13  H   UNL     1      60.271   8.596   0.681  1.00  0.00     0.157 HD
ENDBRANCH   9  11
ENDBRANCH   1   9
TORSDOF 2
ENDMDL
MODEL 8
REMARK VINA RESULT:      -3.2      1.980      2.640
REMARK  2 active torsions:
REMARK  status: ('A' for Active; 'I' for Inactive)
REMARK    1  A    between atoms: C_1  and  C_2 
REMARK    2  A    between atoms: C_2  and  N_8 
ROOT
HETATM    1  C   UNL     1      65.119   7.572   6.129  1.00  0.00     0.085 A 
HETATM    2  N   UNL     1      64.761   8.740   5.519  1.00  0.00    -0.361 N 
ATOM      3  HN  UNL     1      65.423   9.501   5.369  1.00  0.00     0.165 HD
HETATM    4  N   UNL     1      62.904   6.631   5.928  1.00  0.00    -0.372 N 
ATOM      5  HN  UNL     1      62.235   5.875   6.076  1.00  0.00     0.164 HD
HETATM    6  C   UNL     1      64.201   6.544   6.326  1.00  0.00     0.120 A 
HETATM    7  C   UNL     1      63.468   8.818   5.125  1.00  0.00     0.105 A 
HETATM    8  C   UNL     1      62.561   7.791   5.324  1.00  0.00     0.104 A 
ENDROOT
BRANCH   1   9
HETATM    9  C   UNL     1      66.547   7.484   6.567  1.00  0.00     0.122 C 
HETATM   10  S   UNL     1      67.580   6.187   6.348  1.00  0.00    -0.059 SA
BRANCH   9  11
HETATM   11  N   UNL     1      67.034   8.596   7.211  1.00  0.00    -0.388 N 
HETATM   12  H   UNL     1      67.866   9.020   6.900  1.00  0.00     0.157 HD
HETATM   13  H   UNL     1      66.550   8.969   7.984  1.00  0.00     0.157 HD
ENDBRANCH   9  11
ENDBRANCH   1   9
TORSDOF 2
ENDMDL
MODEL 9
REMARK VINA RESULT:      -3.2      2.439      4.090
REMARK  2 active torsions:
REMARK  status: ('A' for Active; 'I' for Inactive)
REMARK    1  A    between atoms: C_1  and  C_2 
REMARK    2  A    between atoms: C_2  and  N_8 
ROOT
HETATM    1  C   UNL     1      63.221   8.618   3.698  1.00  0.00     0.085 A 
HETATM    2  N   UNL     1      63.817   7.462   3.281  1.00  0.00    -0.361 N 
ATOM      3  HN  UNL     1      63.537   6.982   2.426  1.00  0.00     0.165 HD
HETATM    4  N   UNL     1      64.611   8.784   5.666  1.00  0.00    -0.372 N 
ATOM      5  HN  UNL     1      64.896   9.257   6.524  1.00  0.00     0.164 HD
HETATM    6  C   UNL     1      63.617   9.258   4.869  1.00  0.00     0.120 A 
HETATM    7  C   UNL     1      64.806   6.997   4.080  1.00  0.00     0.105 A 
HETATM    8  C   UNL     1      65.195   7.640   5.244  1.00  0.00     0.104 A 
ENDROOT
BRANCH   1   9
HETATM    9  C   UNL     1      62.127   9.133   2.818  1.00  0.00     0.122 C 
HETATM   10  S   UNL     1      62.083   9.083   1.146  1.00  0.00    -0.059 SA
BRANCH   9  11
HETATM   11  N   UNL     1      61.061   9.699   3.475  1.00  0.00    -0.388 N 
HETATM   12  H   UNL     1      61.193  10.125   4.353  1.00  0.00     0.157 HD
HETATM   13  H   UNL     1      60.165   9.680   3.067  1.00  0.00     0.157 HD
ENDBRANCH   9  11
ENDBRANCH   1   9
TORSDOF 2
ENDMDL
