MODEL 1
REMARK VINA RESULT:      -5.3      0.000      0.000
REMARK  2 active torsions:
REMARK  status: ('A' for Active; 'I' for Inactive)
REMARK    1  A    between atoms: C_1  and  C_3 
REMARK    2  A    between atoms: C_2  and  N_4 
ROOT
HETATM    1  C   UNL     1      62.806   9.051   3.730  1.00  0.00     0.091 A 
HETATM    2  C   UNL     1      63.445   9.029   4.977  1.00  0.00     0.118 A 
HETATM    3  N   UNL     1      63.421  10.117   5.786  1.00  0.00    -0.352 N 
ATOM      4  HN  UNL     1      63.904  10.105   6.684  1.00  0.00     0.166 HD
HETATM    5  C   UNL     1      62.093  10.212   3.356  1.00  0.00     0.021 A 
HETATM    6  C   UNL     1      62.745  11.219   5.384  1.00  0.00     0.089 A 
HETATM    7  C   UNL     1      62.069  11.314   4.190  1.00  0.00     0.018 A 
ENDROOT
BRANCH   2   8
HETATM    8  N   UNL     1      64.176   7.933   5.393  1.00  0.00    -0.363 N 
HETATM    9  C   UNL     1      65.597   8.121   5.718  1.00  0.00     0.152 C 
HETATM   10  C   UNL     1      66.294   6.739   5.577  1.00  0.00     0.252 C 
HETATM   11  N   UNL     1      65.688   5.663   6.401  1.00  0.00    -0.072 N 
HETATM   12  C   UNL     1      64.226   5.614   6.157  1.00  0.00     0.252 C 
HETATM   13  H   UNL     1      66.104   4.767   6.148  1.00  0.00     0.277 HD
HETATM   14  H   UNL     1      65.861   5.853   7.388  1.00  0.00     0.277 HD
HETATM   15  C   UNL     1      63.531   6.990   6.325  1.00  0.00     0.152 C 
ENDBRANCH   2   8
BRANCH   1  16
HETATM   16  C   UNL     1      62.855   7.938   2.724  1.00  0.00     0.421 C 
HETATM   17  F   UNL     1      63.998   7.208   2.639  1.00  0.00    -0.166 F 
HETATM   18  F   UNL     1      61.865   7.022   2.947  1.00  0.00    -0.166 F 
HETATM   19  F   UNL     1      62.636   8.393   1.454  1.00  0.00    -0.166 F 
ENDBRANCH   1  16
TORSDOF 2
ENDMDL
MODEL 2
REMARK VINA RESULT:      -5.1      2.200      3.523
REMARK  2 active torsions:
REMARK  status: ('A' for Active; 'I' for Inactive)
REMARK    1  A    between atoms: C_1  and  C_3 
REMARK    2  A    between atoms: C_2  and  N_4 
ROOT
HETATM    1  C   UNL     1      62.378   9.021   2.436  1.00  0.00     0.091 A 
HETATM    2  C   UNL     1      63.039   7.845   2.819  1.00  0.00     0.118 A 
HETATM    3  N   UNL     1      63.219   6.833   1.934  1.00  0.00    -0.352 N 
ATOM      4  HN  UNL     1      63.682   5.971   2.222  1.00  0.00     0.166 HD
HETATM    5  C   UNL     1      61.949   9.149   1.096  1.00  0.00     0.021 A 
HETATM    6  C   UNL     1      62.775   6.984   0.665  1.00  0.00     0.089 A 
HETATM    7  C   UNL     1      62.143   8.115   0.200  1.00  0.00     0.018 A 
ENDROOT
BRANCH   2   8
HETATM    8  N   UNL     1      63.465   7.649   4.118  1.00  0.00    -0.363 N 
HETATM    9  C   UNL     1      62.607   6.875   5.027  1.00  0.00     0.152 C 
HETATM   10  C   UNL     1      62.978   7.285   6.479  1.00  0.00     0.252 C 
HETATM   11  N   UNL     1      64.414   7.112   6.814  1.00  0.00    -0.072 N 
HETATM   12  C   UNL     1      65.247   7.777   5.782  1.00  0.00     0.252 C 
HETATM   13  H   UNL     1      64.604   7.531   7.724  1.00  0.00     0.277 HD
HETATM   14  H   UNL     1      64.639   6.118   6.843  1.00  0.00     0.277 HD
HETATM   15  C   UNL     1      64.891   7.345   4.337  1.00  0.00     0.152 C 
ENDBRANCH   2   8
BRANCH   1  16
HETATM   16  C   UNL     1      62.046  10.154   3.361  1.00  0.00     0.421 C 
HETATM   17  F   UNL     1      62.997  10.554   4.245  1.00  0.00    -0.166 F 
HETATM   18  F   UNL     1      61.713  11.283   2.665  1.00  0.00    -0.166 F 
HETATM   19  F   UNL     1      60.950   9.878   4.128  1.00  0.00    -0.166 F 
ENDBRANCH   1  16
TORSDOF 2
ENDMDL
MODEL 3
REMARK VINA RESULT:      -4.9      2.242      3.439
REMARK  2 active torsions:
REMARK  status: ('A' for Active; 'I' for Inactive)
REMARK    1  A    between atoms: C_1  and  C_3 
REMARK    2  A    between atoms: C_2  and  N_4 
ROOT
HETATM    1  C   UNL     1      63.374   8.300   3.983  1.00  0.00     0.091 A 
HETATM    2  C   UNL     1      64.367   7.326   4.156  1.00  0.00     0.118 A 
HETATM    3  N   UNL     1      64.534   6.337   3.244  1.00  0.00    -0.352 N 
ATOM      4  HN  UNL     1      65.244   5.618   3.384  1.00  0.00     0.166 HD
HETATM    5  C   UNL     1      62.585   8.258   2.812  1.00  0.00     0.021 A 
HETATM    6  C   UNL     1      63.743   6.318   2.145  1.00  0.00     0.089 A 
HETATM    7  C   UNL     1      62.765   7.250   1.885  1.00  0.00     0.018 A 
ENDROOT
BRANCH   2   8
HETATM    8  N   UNL     1      65.159   7.299   5.288  1.00  0.00    -0.363 N 
HETATM    9  C   UNL     1      65.151   6.086   6.120  1.00  0.00     0.152 C 
HETATM   10  C   UNL     1      65.606   6.498   7.547  1.00  0.00     0.252 C 
HETATM   11  N   UNL     1      66.925   7.178   7.595  1.00  0.00    -0.072 N 
HETATM   12  C   UNL     1      66.940   8.300   6.625  1.00  0.00     0.252 C 
HETATM   13  H   UNL     1      67.086   7.540   8.535  1.00  0.00     0.277 HD
HETATM   14  H   UNL     1      67.659   6.512   7.356  1.00  0.00     0.277 HD
HETATM   15  C   UNL     1      66.511   7.879   5.196  1.00  0.00     0.152 C 
ENDBRANCH   2   8
BRANCH   1  16
HETATM   16  C   UNL     1      63.048   9.375   4.977  1.00  0.00     0.421 C 
HETATM   17  F   UNL     1      64.049  10.206   5.367  1.00  0.00    -0.166 F 
HETATM   18  F   UNL     1      62.063  10.201   4.512  1.00  0.00    -0.166 F 
HETATM   19  F   UNL     1      62.552   8.856   6.140  1.00  0.00    -0.166 F 
ENDBRANCH   1  16
TORSDOF 2
ENDMDL
MODEL 4
REMARK VINA RESULT:      -4.7      2.287      3.225
REMARK  2 active torsions:
REMARK  status: ('A' for Active; 'I' for Inactive)
REMARK    1  A    between atoms: C_1  and  C_3 
REMARK    2  A    between atoms: C_2  and  N_4 
ROOT
HETATM    1  C   UNL     1      62.787   9.190   3.694  1.00  0.00     0.091 A 
HETATM    2  C   UNL     1      63.164   7.903   3.287  1.00  0.00     0.118 A 
HETATM    3  N   UNL     1      62.810   7.432   2.065  1.00  0.00    -0.352 N 
ATOM      4  HN  UNL     1      63.068   6.487   1.780  1.00  0.00     0.166 HD
HETATM    5  C   UNL     1      62.075  10.004   2.786  1.00  0.00     0.021 A 
HETATM    6  C   UNL     1      62.108   8.234   1.231  1.00  0.00     0.089 A 
HETATM    7  C   UNL     1      61.723   9.518   1.541  1.00  0.00     0.018 A 
ENDROOT
BRANCH   2   8
HETATM    8  N   UNL     1      63.844   7.049   4.134  1.00  0.00    -0.363 N 
HETATM    9  C   UNL     1      63.081   6.011   4.842  1.00  0.00     0.152 C 
HETATM   10  C   UNL     1      63.898   5.610   6.102  1.00  0.00     0.252 C 
HETATM   11  N   UNL     1      65.284   5.162   5.813  1.00  0.00    -0.072 N 
HETATM   12  C   UNL     1      65.965   6.169   4.964  1.00  0.00     0.252 C 
HETATM   13  H   UNL     1      65.795   5.055   6.689  1.00  0.00     0.277 HD
HETATM   14  H   UNL     1      65.256   4.268   5.323  1.00  0.00     0.277 HD
HETATM   15  C   UNL     1      65.158   6.546   3.695  1.00  0.00     0.152 C 
ENDBRANCH   2   8
BRANCH   1  16
HETATM   16  C   UNL     1      63.046   9.767   5.055  1.00  0.00     0.421 C 
HETATM   17  F   UNL     1      64.338   9.902   5.453  1.00  0.00    -0.166 F 
HETATM   18  F   UNL     1      62.505  11.016   5.177  1.00  0.00    -0.166 F 
HETATM   19  F   UNL     1      62.453   9.028   6.039  1.00  0.00    -0.166 F 
ENDBRANCH   1  16
TORSDOF 2
ENDMDL
MODEL 5
REMARK VINA RESULT:      -4.7      3.585      6.236
REMARK  2 active torsions:
REMARK  status: ('A' for Active; 'I' for Inactive)
REMARK    1  A    between atoms: C_1  and  C_3 
REMARK    2  A    between atoms: C_2  and  N_4 
ROOT
HETATM    1  C   UNL     1      66.955   5.583   7.186  1.00  0.00     0.091 A 
HETATM    2  C   UNL     1      66.112   5.532   6.067  1.00  0.00     0.118 A 
HETATM    3  N   UNL     1      66.263   4.564   5.130  1.00  0.00    -0.352 N 
ATOM      4  HN  UNL     1      65.662   4.543   4.307  1.00  0.00     0.166 HD
HETATM    5  C   UNL     1      67.932   4.574   7.342  1.00  0.00     0.021 A 
HETATM    6  C   UNL     1      67.225   3.628   5.302  1.00  0.00     0.089 A 
HETATM    7  C   UNL     1      68.075   3.588   6.384  1.00  0.00     0.018 A 
ENDROOT
BRANCH   2   8
HETATM    8  N   UNL     1      65.150   6.499   5.846  1.00  0.00    -0.363 N 
HETATM    9  C   UNL     1      65.376   7.480   4.774  1.00  0.00     0.152 C 
HETATM   10  C   UNL     1      64.518   8.733   5.101  1.00  0.00     0.252 C 
HETATM   11  N   UNL     1      63.072   8.453   5.281  1.00  0.00    -0.072 N 
HETATM   12  C   UNL     1      62.898   7.348   6.256  1.00  0.00     0.252 C 
HETATM   13  H   UNL     1      62.604   9.289   5.630  1.00  0.00     0.277 HD
HETATM   14  H   UNL     1      62.664   8.182   4.386  1.00  0.00     0.277 HD
HETATM   15  C   UNL     1      63.735   6.090   5.911  1.00  0.00     0.152 C 
ENDBRANCH   2   8
BRANCH   1  16
HETATM   16  C   UNL     1      66.931   6.663   8.227  1.00  0.00     0.421 C 
HETATM   17  F   UNL     1      66.988   7.953   7.805  1.00  0.00    -0.166 F 
HETATM   18  F   UNL     1      65.802   6.591   8.995  1.00  0.00    -0.166 F 
HETATM   19  F   UNL     1      67.967   6.539   9.110  1.00  0.00    -0.166 F 
ENDBRANCH   1  16
TORSDOF 2
ENDMDL
MODEL 6
REMARK VINA RESULT:      -4.6      1.793      2.458
REMARK  2 active torsions:
REMARK  status: ('A' for Active; 'I' for Inactive)
REMARK    1  A    between atoms: C_1  and  C_3 
REMARK    2  A    between atoms: C_2  and  N_4 
ROOT
HETATM    1  C   UNL     1      64.162   7.371   3.955  1.00  0.00     0.091 A 
HETATM    2  C   UNL     1      64.663   7.921   5.143  1.00  0.00     0.118 A 
HETATM    3  N   UNL     1      64.186   9.099   5.616  1.00  0.00    -0.352 N 
ATOM      4  HN  UNL     1      64.567   9.506   6.470  1.00  0.00     0.166 HD
HETATM    5  C   UNL     1      63.114   8.045   3.288  1.00  0.00     0.021 A 
HETATM    6  C   UNL     1      63.197   9.726   4.937  1.00  0.00     0.089 A 
HETATM    7  C   UNL     1      62.630   9.242   3.781  1.00  0.00     0.018 A 
ENDROOT
BRANCH   2   8
HETATM    8  N   UNL     1      65.701   7.322   5.831  1.00  0.00    -0.363 N 
HETATM    9  C   UNL     1      67.035   7.934   5.757  1.00  0.00     0.152 C 
HETATM   10  C   UNL     1      68.075   6.825   6.081  1.00  0.00     0.252 C 
HETATM   11  N   UNL     1      67.860   6.151   7.387  1.00  0.00    -0.072 N 
HETATM   12  C   UNL     1      66.455   5.688   7.481  1.00  0.00     0.252 C 
HETATM   13  H   UNL     1      68.487   5.350   7.462  1.00  0.00     0.277 HD
HETATM   14  H   UNL     1      68.053   6.807   8.143  1.00  0.00     0.277 HD
HETATM   15  C   UNL     1      65.421   6.804   7.183  1.00  0.00     0.152 C 
ENDBRANCH   2   8
BRANCH   1  16
HETATM   16  C   UNL     1      64.686   6.127   3.300  1.00  0.00     0.421 C 
HETATM   17  F   UNL     1      64.217   5.813   2.064  1.00  0.00    -0.166 F 
HETATM   18  F   UNL     1      66.046   6.173   3.161  1.00  0.00    -0.166 F 
HETATM   19  F   UNL     1      64.446   5.016   4.057  1.00  0.00    -0.166 F 
ENDBRANCH   1  16
TORSDOF 2
ENDMDL
MODEL 7
REMARK VINA RESULT:      -4.6      2.621      3.849
REMARK  2 active torsions:
REMARK  status: ('A' for Active; 'I' for Inactive)
REMARK    1  A    between atoms: C_1  and  C_3 
REMARK    2  A    between atoms: C_2  and  N_4 
ROOT
HETATM    1  C   UNL     1      62.313   9.271   2.894  1.00  0.00     0.091 A 
HETATM    2  C   UNL     1      62.598   7.939   3.221  1.00  0.00     0.118 A 
HETATM    3  N   UNL     1      63.030   7.607   4.463  1.00  0.00    -0.352 N 
ATOM      4  HN  UNL     1      63.256   6.640   4.692  1.00  0.00     0.166 HD
HETATM    5  C   UNL     1      62.436  10.255   3.901  1.00  0.00     0.021 A 
HETATM    6  C   UNL     1      63.156   8.581   5.395  1.00  0.00     0.089 A 
HETATM    7  C   UNL     1      62.870   9.907   5.166  1.00  0.00     0.018 A 
ENDROOT
BRANCH   2   8
HETATM    8  N   UNL     1      62.518   6.933   2.277  1.00  0.00    -0.363 N 
HETATM    9  C   UNL     1      63.714   6.119   2.017  1.00  0.00     0.152 C 
HETATM   10  C   UNL     1      63.564   5.513   0.594  1.00  0.00     0.252 C 
HETATM   11  N   UNL     1      62.321   4.726   0.394  1.00  0.00    -0.072 N 
HETATM   12  C   UNL     1      61.150   5.531   0.818  1.00  0.00     0.252 C 
HETATM   13  H   UNL     1      62.227   4.485  -0.592  1.00  0.00     0.277 HD
HETATM   14  H   UNL     1      62.366   3.873   0.951  1.00  0.00     0.277 HD
HETATM   15  C   UNL     1      61.293   6.113   2.249  1.00  0.00     0.152 C 
ENDBRANCH   2   8
BRANCH   1  16
HETATM   16  C   UNL     1      61.923   9.753   1.528  1.00  0.00     0.421 C 
HETATM   17  F   UNL     1      62.720   9.411   0.482  1.00  0.00    -0.166 F 
HETATM   18  F   UNL     1      60.676   9.312   1.182  1.00  0.00    -0.166 F 
HETATM   19  F   UNL     1      61.843  11.116   1.474  1.00  0.00    -0.166 F 
ENDBRANCH   1  16
TORSDOF 2
ENDMDL
MODEL 8
REMARK VINA RESULT:      -4.5      3.153      5.637
REMARK  2 active torsions:
REMARK  status: ('A' for Active; 'I' for Inactive)
REMARK    1  A    between atoms: C_1  and  C_3 
REMARK    2  A    between atoms: C_2  and  N_4 
ROOT
HETATM    1  C   UNL     1      67.063   5.490   6.646  1.00  0.00     0.091 A 
HETATM    2  C   UNL     1      66.044   6.394   6.978  1.00  0.00     0.118 A 
HETATM    3  N   UNL     1      65.976   6.934   8.220  1.00  0.00    -0.352 N 
ATOM      4  HN  UNL     1      65.222   7.576   8.464  1.00  0.00     0.166 HD
HETATM    5  C   UNL     1      68.045   5.194   7.616  1.00  0.00     0.021 A 
HETATM    6  C   UNL     1      66.924   6.609   9.130  1.00  0.00     0.089 A 
HETATM    7  C   UNL     1      67.972   5.754   8.878  1.00  0.00     0.018 A 
ENDROOT
BRANCH   2   8
HETATM    8  N   UNL     1      65.042   6.710   6.082  1.00  0.00    -0.363 N 
HETATM    9  C   UNL     1      63.653   6.385   6.440  1.00  0.00     0.152 C 
HETATM   10  C   UNL     1      62.843   6.283   5.118  1.00  0.00     0.252 C 
HETATM   11  N   UNL     1      62.912   7.495   4.264  1.00  0.00    -0.072 N 
HETATM   12  C   UNL     1      64.330   7.878   4.059  1.00  0.00     0.252 C 
HETATM   13  H   UNL     1      62.479   7.301   3.362  1.00  0.00     0.277 HD
HETATM   14  H   UNL     1      62.416   8.261   4.722  1.00  0.00     0.277 HD
HETATM   15  C   UNL     1      65.127   8.005   5.382  1.00  0.00     0.152 C 
ENDBRANCH   2   8
BRANCH   1  16
HETATM   16  C   UNL     1      67.171   4.767   5.336  1.00  0.00     0.421 C 
HETATM   17  F   UNL     1      66.044   4.207   4.824  1.00  0.00    -0.166 F 
HETATM   18  F   UNL     1      67.636   5.590   4.349  1.00  0.00    -0.166 F 
HETATM   19  F   UNL     1      68.073   3.743   5.396  1.00  0.00    -0.166 F 
ENDBRANCH   1  16
TORSDOF 2
ENDMDL
MODEL 9
REMARK VINA RESULT:      -4.5      2.822      4.661
REMARK  2 active torsions:
REMARK  status: ('A' for Active; 'I' for Inactive)
REMARK    1  A    between atoms: C_1  and  C_3 
REMARK    2  A    between atoms: C_2  and  N_4 
ROOT
HETATM    1  C   UNL     1      63.178   8.905   4.051  1.00  0.00     0.091 A 
HETATM    2  C   UNL     1      63.165   7.690   3.350  1.00  0.00     0.118 A 
HETATM    3  N   UNL     1      64.168   6.791   3.504  1.00  0.00    -0.352 N 
ATOM      4  HN  UNL     1      64.166   5.918   2.978  1.00  0.00     0.166 HD
HETATM    5  C   UNL     1      64.233   9.149   4.959  1.00  0.00     0.021 A 
HETATM    6  C   UNL     1      65.173   7.070   4.367  1.00  0.00     0.089 A 
HETATM    7  C   UNL     1      65.248   8.224   5.114  1.00  0.00     0.018 A 
ENDROOT
BRANCH   2   8
HETATM    8  N   UNL     1      62.174   7.399   2.433  1.00  0.00    -0.363 N 
HETATM    9  C   UNL     1      62.454   7.616   1.006  1.00  0.00     0.152 C 
HETATM   10  C   UNL     1      61.089   7.789   0.284  1.00  0.00     0.252 C 
HETATM   11  N   UNL     1      60.146   6.661   0.485  1.00  0.00    -0.072 N 
HETATM   12  C   UNL     1      60.014   6.375   1.934  1.00  0.00     0.252 C 
HETATM   13  H   UNL     1      59.233   6.910   0.104  1.00  0.00     0.277 HD
HETATM   14  H   UNL     1      60.500   5.833   0.006  1.00  0.00     0.277 HD
HETATM   15  C   UNL     1      61.378   6.177   2.645  1.00  0.00     0.152 C 
ENDBRANCH   2   8
BRANCH   1  16
HETATM   16  C   UNL     1      62.170  10.002   3.879  1.00  0.00     0.421 C 
HETATM   17  F   UNL     1      60.854   9.676   3.968  1.00  0.00    -0.166 F 
HETATM   18  F   UNL     1      62.352  10.994   4.802  1.00  0.00    -0.166 F 
HETATM   19  F   UNL     1      62.296  10.621   2.667  1.00  0.00    -0.166 F 
ENDBRANCH   1  16
TORSDOF 2
ENDMDL
