MODEL 1
REMARK VINA RESULT:      -4.8      0.000      0.000
REMARK  1 active torsions:
REMARK  status: ('A' for Active; 'I' for Inactive)
REMARK    1  A    between atoms: C_1  and  C_6 
ROOT
HETATM    1  C   UNL     1      65.708   8.154   5.412  1.00  0.00     0.076 A 
HETATM    2  N   UNL     1      66.245   8.413   6.622  1.00  0.00    -0.299 N 
ATOM      3  HN  UNL     1      65.879   9.031   7.346  1.00  0.00     0.187 HD
HETATM    4  N   UNL     1      67.366   7.677   6.660  1.00  0.00    -0.311 N 
HETATM    5  C   UNL     1      66.532   7.239   4.696  1.00  0.00     0.052 A 
HETATM    6  C   UNL     1      67.583   6.950   5.531  1.00  0.00     0.109 A 
HETATM    7  H   UNL     1      67.975   7.665   7.433  1.00  0.00     0.186 HD
ENDROOT
BRANCH   1   8
HETATM    8  C   UNL     1      64.445   8.749   4.956  1.00  0.00     0.060 A 
HETATM    9  N   UNL     1      64.015   9.850   5.628  1.00  0.00    -0.364 N 
HETATM   10  C   UNL     1      62.868  10.423   5.202  1.00  0.00     0.088 A 
ATOM     11  HN  UNL     1      64.536  10.227   6.419  1.00  0.00     0.165 HD
HETATM   12  C   UNL     1      62.122   9.957   4.131  1.00  0.00     0.017 A 
HETATM   13  C   UNL     1      62.572   8.829   3.458  1.00  0.00     0.004 A 
HETATM   14  C   UNL     1      63.748   8.212   3.876  1.00  0.00     0.032 A 
ENDBRANCH   1   8
TORSDOF 1
ENDMDL
MODEL 2
REMARK VINA RESULT:      -4.7      1.814      2.235
REMARK  1 active torsions:
REMARK  status: ('A' for Active; 'I' for Inactive)
REMARK    1  A    between atoms: C_1  and  C_6 
ROOT
HETATM    1  C   UNL     1      63.718   8.411   5.040  1.00  0.00     0.076 A 
HETATM    2  N   UNL     1      63.157   8.002   6.196  1.00  0.00    -0.299 N 
ATOM      3  HN  UNL     1      62.207   8.176   6.523  1.00  0.00     0.187 HD
HETATM    4  N   UNL     1      64.126   7.315   6.819  1.00  0.00    -0.311 N 
HETATM    5  C   UNL     1      65.068   7.963   4.965  1.00  0.00     0.052 A 
HETATM    6  C   UNL     1      65.292   7.258   6.121  1.00  0.00     0.109 A 
HETATM    7  H   UNL     1      64.006   6.893   7.700  1.00  0.00     0.186 HD
ENDROOT
BRANCH   1   8
HETATM    8  C   UNL     1      62.989   9.194   4.032  1.00  0.00     0.060 A 
HETATM    9  N   UNL     1      62.570  10.430   4.411  1.00  0.00    -0.364 N 
HETATM   10  C   UNL     1      61.921  11.171   3.486  1.00  0.00     0.088 A 
ATOM     11  HN  UNL     1      62.738  10.784   5.353  1.00  0.00     0.165 HD
HETATM   12  C   UNL     1      61.669  10.745   2.192  1.00  0.00     0.017 A 
HETATM   13  C   UNL     1      62.100   9.477   1.822  1.00  0.00     0.004 A 
HETATM   14  C   UNL     1      62.767   8.686   2.755  1.00  0.00     0.032 A 
ENDBRANCH   1   8
TORSDOF 1
ENDMDL
MODEL 3
REMARK VINA RESULT:      -4.5      0.881      4.329
REMARK  1 active torsions:
REMARK  status: ('A' for Active; 'I' for Inactive)
REMARK    1  A    between atoms: C_1  and  C_6 
ROOT
HETATM    1  C   UNL     1      64.040   9.056   4.929  1.00  0.00     0.076 A 
HETATM    2  N   UNL     1      63.750  10.139   5.679  1.00  0.00    -0.299 N 
ATOM      3  HN  UNL     1      64.250  10.480   6.500  1.00  0.00     0.187 HD
HETATM    4  N   UNL     1      62.658  10.666   5.105  1.00  0.00    -0.311 N 
HETATM    5  C   UNL     1      63.092   8.921   3.876  1.00  0.00     0.052 A 
HETATM    6  C   UNL     1      62.224   9.976   4.016  1.00  0.00     0.109 A 
HETATM    7  H   UNL     1      62.211  11.476   5.442  1.00  0.00     0.186 HD
ENDROOT
BRANCH   1   8
HETATM    8  C   UNL     1      65.190   8.183   5.201  1.00  0.00     0.060 A 
HETATM    9  N   UNL     1      65.859   8.403   6.364  1.00  0.00    -0.364 N 
HETATM   10  C   UNL     1      66.902   7.591   6.638  1.00  0.00     0.088 A 
ATOM     11  HN  UNL     1      65.584   9.150   7.002  1.00  0.00     0.165 HD
HETATM   12  C   UNL     1      67.318   6.559   5.812  1.00  0.00     0.017 A 
HETATM   13  C   UNL     1      66.627   6.349   4.625  1.00  0.00     0.004 A 
HETATM   14  C   UNL     1      65.549   7.174   4.311  1.00  0.00     0.032 A 
ENDBRANCH   1   8
TORSDOF 1
ENDMDL
MODEL 4
REMARK VINA RESULT:      -4.4      3.429      4.560
REMARK  1 active torsions:
REMARK  status: ('A' for Active; 'I' for Inactive)
REMARK    1  A    between atoms: C_1  and  C_6 
ROOT
HETATM    1  C   UNL     1      62.175   9.602   3.969  1.00  0.00     0.076 A 
HETATM    2  N   UNL     1      62.768   8.894   4.951  1.00  0.00    -0.299 N 
ATOM      3  HN  UNL     1      62.894   7.883   5.002  1.00  0.00     0.187 HD
HETATM    4  N   UNL     1      63.157   9.815   5.846  1.00  0.00    -0.311 N 
HETATM    5  C   UNL     1      62.200  10.991   4.282  1.00  0.00     0.052 A 
HETATM    6  C   UNL     1      62.844  11.091   5.490  1.00  0.00     0.109 A 
HETATM    7  H   UNL     1      63.624   9.590   6.682  1.00  0.00     0.186 HD
ENDROOT
BRANCH   1   8
HETATM    8  C   UNL     1      61.611   8.978   2.764  1.00  0.00     0.060 A 
HETATM    9  N   UNL     1      60.393   8.389   2.899  1.00  0.00    -0.364 N 
HETATM   10  C   UNL     1      59.852   7.833   1.792  1.00  0.00     0.088 A 
ATOM     11  HN  UNL     1      59.909   8.367   3.796  1.00  0.00     0.165 HD
HETATM   12  C   UNL     1      60.461   7.837   0.548  1.00  0.00     0.017 A 
HETATM   13  C   UNL     1      61.708   8.438   0.428  1.00  0.00     0.004 A 
HETATM   14  C   UNL     1      62.295   9.015   1.551  1.00  0.00     0.032 A 
ENDBRANCH   1   8
TORSDOF 1
ENDMDL
MODEL 5
REMARK VINA RESULT:      -4.3     13.300     14.047
REMARK  1 active torsions:
REMARK  status: ('A' for Active; 'I' for Inactive)
REMARK    1  A    between atoms: C_1  and  C_6 
ROOT
HETATM    1  C   UNL     1      55.412   2.722  13.533  1.00  0.00     0.076 A 
HETATM    2  N   UNL     1      54.825   2.933  14.729  1.00  0.00    -0.299 N 
ATOM      3  HN  UNL     1      55.249   2.856  15.653  1.00  0.00     0.187 HD
HETATM    4  N   UNL     1      53.561   3.268  14.431  1.00  0.00    -0.311 N 
HETATM    5  C   UNL     1      54.473   2.929  12.483  1.00  0.00     0.052 A 
HETATM    6  C   UNL     1      53.298   3.285  13.096  1.00  0.00     0.109 A 
HETATM    7  H   UNL     1      52.885   3.481  15.115  1.00  0.00     0.186 HD
ENDROOT
BRANCH   1   8
HETATM    8  C   UNL     1      56.826   2.345  13.394  1.00  0.00     0.060 A 
HETATM    9  N   UNL     1      57.420   1.802  14.490  1.00  0.00    -0.364 N 
HETATM   10  C   UNL     1      58.712   1.428  14.368  1.00  0.00     0.088 A 
ATOM     11  HN  UNL     1      56.912   1.683  15.366  1.00  0.00     0.165 HD
HETATM   12  C   UNL     1      59.450   1.561  13.202  1.00  0.00     0.017 A 
HETATM   13  C   UNL     1      58.830   2.122  12.093  1.00  0.00     0.004 A 
HETATM   14  C   UNL     1      57.499   2.523  12.188  1.00  0.00     0.032 A 
ENDBRANCH   1   8
TORSDOF 1
ENDMDL
MODEL 6
REMARK VINA RESULT:      -4.3      2.452      4.733
REMARK  1 active torsions:
REMARK  status: ('A' for Active; 'I' for Inactive)
REMARK    1  A    between atoms: C_1  and  C_6 
ROOT
HETATM    1  C   UNL     1      62.587   9.468   3.706  1.00  0.00     0.076 A 
HETATM    2  N   UNL     1      62.140  10.701   4.022  1.00  0.00    -0.299 N 
ATOM      3  HN  UNL     1      62.163  11.157   4.934  1.00  0.00     0.187 HD
HETATM    4  N   UNL     1      61.657  11.192   2.871  1.00  0.00    -0.311 N 
HETATM    5  C   UNL     1      62.363   9.205   2.324  1.00  0.00     0.052 A 
HETATM    6  C   UNL     1      61.770  10.336   1.820  1.00  0.00     0.109 A 
HETATM    7  H   UNL     1      61.256  12.088   2.794  1.00  0.00     0.186 HD
ENDROOT
BRANCH   1   8
HETATM    8  C   UNL     1      63.219   8.574   4.685  1.00  0.00     0.060 A 
HETATM    9  N   UNL     1      62.393   7.726   5.355  1.00  0.00    -0.364 N 
HETATM   10  C   UNL     1      62.965   6.880   6.240  1.00  0.00     0.088 A 
ATOM     11  HN  UNL     1      61.386   7.730   5.196  1.00  0.00     0.165 HD
HETATM   12  C   UNL     1      64.326   6.828   6.492  1.00  0.00     0.017 A 
HETATM   13  C   UNL     1      65.156   7.704   5.803  1.00  0.00     0.004 A 
HETATM   14  C   UNL     1      64.597   8.592   4.888  1.00  0.00     0.032 A 
ENDBRANCH   1   8
TORSDOF 1
ENDMDL
MODEL 7
REMARK VINA RESULT:      -4.1      2.363      5.316
REMARK  1 active torsions:
REMARK  status: ('A' for Active; 'I' for Inactive)
REMARK    1  A    between atoms: C_1  and  C_6 
ROOT
HETATM    1  C   UNL     1      65.224   7.321   6.306  1.00  0.00     0.076 A 
HETATM    2  N   UNL     1      63.934   7.424   6.686  1.00  0.00    -0.299 N 
ATOM      3  HN  UNL     1      63.472   6.944   7.458  1.00  0.00     0.187 HD
HETATM    4  N   UNL     1      63.396   8.299   5.823  1.00  0.00    -0.311 N 
HETATM    5  C   UNL     1      65.471   8.152   5.176  1.00  0.00     0.052 A 
HETATM    6  C   UNL     1      64.277   8.770   4.899  1.00  0.00     0.109 A 
HETATM    7  H   UNL     1      62.451   8.574   5.854  1.00  0.00     0.186 HD
ENDROOT
BRANCH   1   8
HETATM    8  C   UNL     1      66.194   6.465   7.003  1.00  0.00     0.060 A 
HETATM    9  N   UNL     1      66.766   5.473   6.269  1.00  0.00    -0.364 N 
HETATM   10  C   UNL     1      67.679   4.696   6.891  1.00  0.00     0.088 A 
ATOM     11  HN  UNL     1      66.516   5.323   5.292  1.00  0.00     0.165 HD
HETATM   12  C   UNL     1      68.061   4.856   8.213  1.00  0.00     0.017 A 
HETATM   13  C   UNL     1      67.464   5.871   8.951  1.00  0.00     0.004 A 
HETATM   14  C   UNL     1      66.514   6.687   8.340  1.00  0.00     0.032 A 
ENDBRANCH   1   8
TORSDOF 1
ENDMDL
MODEL 8
REMARK VINA RESULT:      -4.0      2.619      3.158
REMARK  1 active torsions:
REMARK  status: ('A' for Active; 'I' for Inactive)
REMARK    1  A    between atoms: C_1  and  C_6 
ROOT
HETATM    1  C   UNL     1      65.812   6.241   7.557  1.00  0.00     0.076 A 
HETATM    2  N   UNL     1      65.649   4.939   7.865  1.00  0.00    -0.299 N 
ATOM      3  HN  UNL     1      64.949   4.294   7.499  1.00  0.00     0.187 HD
HETATM    4  N   UNL     1      66.614   4.680   8.762  1.00  0.00    -0.311 N 
HETATM    5  C   UNL     1      66.902   6.787   8.293  1.00  0.00     0.052 A 
HETATM    6  C   UNL     1      67.397   5.754   9.050  1.00  0.00     0.109 A 
HETATM    7  H   UNL     1      66.742   3.795   9.173  1.00  0.00     0.186 HD
ENDROOT
BRANCH   1   8
HETATM    8  C   UNL     1      64.963   6.942   6.584  1.00  0.00     0.060 A 
HETATM    9  N   UNL     1      63.661   6.554   6.523  1.00  0.00    -0.364 N 
HETATM   10  C   UNL     1      62.863   7.208   5.651  1.00  0.00     0.088 A 
ATOM     11  HN  UNL     1      63.303   5.801   7.111  1.00  0.00     0.165 HD
HETATM   12  C   UNL     1      63.294   8.240   4.832  1.00  0.00     0.017 A 
HETATM   13  C   UNL     1      64.628   8.622   4.903  1.00  0.00     0.004 A 
HETATM   14  C   UNL     1      65.477   7.963   5.789  1.00  0.00     0.032 A 
ENDBRANCH   1   8
TORSDOF 1
ENDMDL
MODEL 9
REMARK VINA RESULT:      -3.8      3.767      4.143
REMARK  1 active torsions:
REMARK  status: ('A' for Active; 'I' for Inactive)
REMARK    1  A    between atoms: C_1  and  C_6 
ROOT
HETATM    1  C   UNL     1      61.578   7.601   4.417  1.00  0.00     0.076 A 
HETATM    2  N   UNL     1      62.209   7.536   5.607  1.00  0.00    -0.299 N 
ATOM      3  HN  UNL     1      62.828   8.232   6.023  1.00  0.00     0.187 HD
HETATM    4  N   UNL     1      61.840   6.353   6.122  1.00  0.00    -0.311 N 
HETATM    5  C   UNL     1      60.811   6.420   4.203  1.00  0.00     0.052 A 
HETATM    6  C   UNL     1      60.998   5.646   5.322  1.00  0.00     0.109 A 
HETATM    7  H   UNL     1      62.151   6.027   6.997  1.00  0.00     0.186 HD
ENDROOT
BRANCH   1   8
HETATM    8  C   UNL     1      61.693   8.755   3.515  1.00  0.00     0.060 A 
HETATM    9  N   UNL     1      61.766   9.980   4.102  1.00  0.00    -0.364 N 
HETATM   10  C   UNL     1      61.898  11.047   3.286  1.00  0.00     0.088 A 
ATOM     11  HN  UNL     1      61.722  10.087   5.115  1.00  0.00     0.165 HD
HETATM   12  C   UNL     1      61.967  10.962   1.904  1.00  0.00     0.017 A 
HETATM   13  C   UNL     1      61.887   9.704   1.319  1.00  0.00     0.004 A 
HETATM   14  C   UNL     1      61.745   8.583   2.134  1.00  0.00     0.032 A 
ENDBRANCH   1   8
TORSDOF 1
ENDMDL
