MODEL 1
REMARK VINA RESULT:      -5.2      0.000      0.000
REMARK  4 active torsions:
REMARK  status: ('A' for Active; 'I' for Inactive)
REMARK    1  A    between atoms: C_1  and  C_8 
REMARK    2  A    between atoms: C_2  and  N_9 
REMARK    3  A    between atoms: C_3  and  C_6 
REMARK    4  A    between atoms: C_8  and  N_15 
ROOT
HETATM    1  C   UNL     1      65.092   7.860   5.545  1.00  0.00     0.097 A 
HETATM    2  C   UNL     1      64.786   7.062   4.415  1.00  0.00     0.061 A 
HETATM    3  C   UNL     1      63.177   8.825   3.820  1.00  0.00     0.065 A 
HETATM    4  N   UNL     1      64.490   9.060   5.818  1.00  0.00    -0.361 N 
ATOM      5  HN  UNL     1      64.735   9.593   6.653  1.00  0.00     0.165 HD
HETATM    6  C   UNL     1      63.787   7.586   3.572  1.00  0.00     0.049 A 
HETATM    7  C   UNL     1      63.564   9.515   4.952  1.00  0.00     0.104 A 
ENDROOT
BRANCH   1   8
HETATM    8  C   UNL     1      66.204   7.523   6.504  1.00  0.00     0.123 C 
HETATM    9  S   UNL     1      66.043   6.554   7.861  1.00  0.00    -0.058 SA
BRANCH   8  10
HETATM   10  N   UNL     1      67.446   8.060   6.245  1.00  0.00    -0.388 N 
HETATM   11  H   UNL     1      68.004   7.685   5.526  1.00  0.00     0.157 HD
HETATM   12  H   UNL     1      67.775   8.819   6.780  1.00  0.00     0.157 HD
ENDBRANCH   8  10
ENDBRANCH   1   8
BRANCH   2  13
HETATM   13  N   UNL     1      65.418   5.855   4.117  1.00  0.00    -0.379 N 
HETATM   14  C   UNL     1      65.213   4.635   4.910  1.00  0.00     0.123 C 
HETATM   15  C   UNL     1      66.593   3.984   4.990  1.00  0.00     0.021 C 
HETATM   16  C   UNL     1      67.269   4.454   3.716  1.00  0.00     0.021 C 
HETATM   17  C   UNL     1      66.805   5.906   3.612  1.00  0.00     0.123 C 
ENDBRANCH   2  13
BRANCH   3  18
HETATM   18  C   UNL     1      62.153   9.422   2.905  1.00  0.00     0.418 C 
HETATM   19  F   UNL     1      62.464   9.291   1.585  1.00  0.00    -0.166 F 
HETATM   20  F   UNL     1      60.923   8.860   3.056  1.00  0.00    -0.166 F 
HETATM   21  F   UNL     1      61.984  10.756   3.114  1.00  0.00    -0.166 F 
ENDBRANCH   3  18
TORSDOF 4
ENDMDL
MODEL 2
REMARK VINA RESULT:      -5.1      1.654      3.034
REMARK  4 active torsions:
REMARK  status: ('A' for Active; 'I' for Inactive)
REMARK    1  A    between atoms: C_1  and  C_8 
REMARK    2  A    between atoms: C_2  and  N_9 
REMARK    3  A    between atoms: C_3  and  C_6 
REMARK    4  A    between atoms: C_8  and  N_15 
ROOT
HETATM    1  C   UNL     1      64.777   6.730   3.944  1.00  0.00     0.097 A 
HETATM    2  C   UNL     1      64.916   7.674   4.992  1.00  0.00     0.061 A 
HETATM    3  C   UNL     1      63.144   8.944   3.852  1.00  0.00     0.065 A 
HETATM    4  N   UNL     1      63.892   6.866   2.906  1.00  0.00    -0.361 N 
ATOM      5  HN  UNL     1      63.838   6.165   2.167  1.00  0.00     0.165 HD
HETATM    6  C   UNL     1      64.075   8.799   4.892  1.00  0.00     0.049 A 
HETATM    7  C   UNL     1      63.097   7.953   2.892  1.00  0.00     0.104 A 
ENDROOT
BRANCH   1   8
HETATM    8  C   UNL     1      65.510   5.414   3.930  1.00  0.00     0.123 C 
HETATM    9  S   UNL     1      65.025   4.034   4.748  1.00  0.00    -0.058 SA
BRANCH   8  10
HETATM   10  N   UNL     1      66.671   5.346   3.193  1.00  0.00    -0.388 N 
HETATM   11  H   UNL     1      66.828   4.582   2.592  1.00  0.00     0.157 HD
HETATM   12  H   UNL     1      67.344   6.061   3.267  1.00  0.00     0.157 HD
ENDBRANCH   8  10
ENDBRANCH   1   8
BRANCH   2  13
HETATM   13  N   UNL     1      65.794   7.524   6.066  1.00  0.00    -0.379 N 
HETATM   14  C   UNL     1      67.248   7.402   5.892  1.00  0.00     0.123 C 
HETATM   15  C   UNL     1      67.677   6.354   6.916  1.00  0.00     0.021 C 
HETATM   16  C   UNL     1      66.636   6.495   8.009  1.00  0.00     0.021 C 
HETATM   17  C   UNL     1      65.349   6.710   7.214  1.00  0.00     0.123 C 
ENDBRANCH   2  13
BRANCH   3  18
HETATM   18  C   UNL     1      62.205  10.107   3.762  1.00  0.00     0.418 C 
HETATM   19  F   UNL     1      62.434  11.062   4.704  1.00  0.00    -0.166 F 
HETATM   20  F   UNL     1      62.272  10.743   2.560  1.00  0.00    -0.166 F 
HETATM   21  F   UNL     1      60.904   9.737   3.918  1.00  0.00    -0.166 F 
ENDBRANCH   3  18
TORSDOF 4
ENDMDL
MODEL 3
REMARK VINA RESULT:      -5.0      3.780      5.597
REMARK  4 active torsions:
REMARK  status: ('A' for Active; 'I' for Inactive)
REMARK    1  A    between atoms: C_1  and  C_8 
REMARK    2  A    between atoms: C_2  and  N_9 
REMARK    3  A    between atoms: C_3  and  C_6 
REMARK    4  A    between atoms: C_8  and  N_15 
ROOT
HETATM    1  C   UNL     1      62.811   6.649   5.327  1.00  0.00     0.097 A 
HETATM    2  C   UNL     1      63.230   7.854   4.711  1.00  0.00     0.061 A 
HETATM    3  C   UNL     1      65.366   7.509   5.881  1.00  0.00     0.065 A 
HETATM    4  N   UNL     1      63.597   5.910   6.171  1.00  0.00    -0.361 N 
ATOM      5  HN  UNL     1      63.245   5.054   6.602  1.00  0.00     0.165 HD
HETATM    6  C   UNL     1      64.536   8.265   5.039  1.00  0.00     0.049 A 
HETATM    7  C   UNL     1      64.847   6.347   6.416  1.00  0.00     0.104 A 
ENDROOT
BRANCH   1   8
HETATM    8  C   UNL     1      61.491   5.992   5.018  1.00  0.00     0.123 C 
HETATM    9  S   UNL     1      61.232   4.887   3.785  1.00  0.00    -0.058 SA
BRANCH   8  10
HETATM   10  N   UNL     1      60.415   6.333   5.808  1.00  0.00    -0.388 N 
HETATM   11  H   UNL     1      59.712   5.670   5.995  1.00  0.00     0.157 HD
HETATM   12  H   UNL     1      60.350   7.240   6.185  1.00  0.00     0.157 HD
ENDBRANCH   8  10
ENDBRANCH   1   8
BRANCH   2  13
HETATM   13  N   UNL     1      62.444   8.594   3.827  1.00  0.00    -0.379 N 
HETATM   14  C   UNL     1      62.343   8.273   2.396  1.00  0.00     0.123 C 
HETATM   15  C   UNL     1      62.331   9.629   1.692  1.00  0.00     0.021 C 
HETATM   16  C   UNL     1      61.723  10.551   2.731  1.00  0.00     0.021 C 
HETATM   17  C   UNL     1      62.363  10.054   4.027  1.00  0.00     0.123 C 
ENDBRANCH   2  13
BRANCH   3  18
HETATM   18  C   UNL     1      66.776   7.904   6.196  1.00  0.00     0.418 C 
HETATM   19  F   UNL     1      67.489   6.919   6.809  1.00  0.00    -0.166 F 
HETATM   20  F   UNL     1      67.486   8.243   5.086  1.00  0.00    -0.166 F 
HETATM   21  F   UNL     1      66.840   8.980   7.027  1.00  0.00    -0.166 F 
ENDBRANCH   3  18
TORSDOF 4
ENDMDL
MODEL 4
REMARK VINA RESULT:      -4.8      4.478      5.571
REMARK  4 active torsions:
REMARK  status: ('A' for Active; 'I' for Inactive)
REMARK    1  A    between atoms: C_1  and  C_8 
REMARK    2  A    between atoms: C_2  and  N_9 
REMARK    3  A    between atoms: C_3  and  C_6 
REMARK    4  A    between atoms: C_8  and  N_15 
ROOT
HETATM    1  C   UNL     1      64.161   8.086   5.348  1.00  0.00     0.097 A 
HETATM    2  C   UNL     1      63.756   6.847   5.905  1.00  0.00     0.061 A 
HETATM    3  C   UNL     1      65.905   6.880   7.102  1.00  0.00     0.065 A 
HETATM    4  N   UNL     1      65.355   8.696   5.629  1.00  0.00    -0.361 N 
ATOM      5  HN  UNL     1      65.607   9.582   5.191  1.00  0.00     0.165 HD
HETATM    6  C   UNL     1      64.688   6.259   6.781  1.00  0.00     0.049 A 
HETATM    7  C   UNL     1      66.185   8.091   6.499  1.00  0.00     0.104 A 
ENDROOT
BRANCH   1   8
HETATM    8  C   UNL     1      63.259   8.919   4.474  1.00  0.00     0.123 C 
HETATM    9  S   UNL     1      62.763   8.503   2.929  1.00  0.00    -0.058 SA
BRANCH   8  10
HETATM   10  N   UNL     1      62.816  10.118   4.986  1.00  0.00    -0.388 N 
HETATM   11  H   UNL     1      63.201  10.964   4.662  1.00  0.00     0.157 HD
HETATM   12  H   UNL     1      62.114  10.129   5.677  1.00  0.00     0.157 HD
ENDBRANCH   8  10
ENDBRANCH   1   8
BRANCH   2  13
HETATM   13  N   UNL     1      62.529   6.238   5.646  1.00  0.00    -0.379 N 
HETATM   14  C   UNL     1      61.388   6.325   6.568  1.00  0.00     0.123 C 
HETATM   15  C   UNL     1      60.753   4.936   6.537  1.00  0.00     0.021 C 
HETATM   16  C   UNL     1      61.103   4.429   5.151  1.00  0.00     0.021 C 
HETATM   17  C   UNL     1      62.537   4.925   4.970  1.00  0.00     0.123 C 
ENDBRANCH   2  13
BRANCH   3  18
HETATM   18  C   UNL     1      66.883   6.295   8.073  1.00  0.00     0.418 C 
HETATM   19  F   UNL     1      68.006   5.804   7.481  1.00  0.00    -0.166 F 
HETATM   20  F   UNL     1      67.311   7.199   8.996  1.00  0.00    -0.166 F 
HETATM   21  F   UNL     1      66.354   5.259   8.781  1.00  0.00    -0.166 F 
ENDBRANCH   3  18
TORSDOF 4
ENDMDL
MODEL 5
REMARK VINA RESULT:      -4.8      3.668      5.563
REMARK  4 active torsions:
REMARK  status: ('A' for Active; 'I' for Inactive)
REMARK    1  A    between atoms: C_1  and  C_8 
REMARK    2  A    between atoms: C_2  and  N_9 
REMARK    3  A    between atoms: C_3  and  C_6 
REMARK    4  A    between atoms: C_8  and  N_15 
ROOT
HETATM    1  C   UNL     1      61.767   7.012   4.784  1.00  0.00     0.097 A 
HETATM    2  C   UNL     1      61.127   7.928   3.913  1.00  0.00     0.061 A 
HETATM    3  C   UNL     1      59.052   6.717   4.443  1.00  0.00     0.065 A 
HETATM    4  N   UNL     1      61.116   6.005   5.446  1.00  0.00    -0.361 N 
ATOM      5  HN  UNL     1      61.624   5.361   6.053  1.00  0.00     0.165 HD
HETATM    6  C   UNL     1      59.742   7.726   3.755  1.00  0.00     0.049 A 
HETATM    7  C   UNL     1      59.786   5.889   5.270  1.00  0.00     0.104 A 
ENDROOT
BRANCH   1   8
HETATM    8  C   UNL     1      63.220   7.130   5.165  1.00  0.00     0.123 C 
HETATM    9  S   UNL     1      64.509   6.691   4.188  1.00  0.00    -0.058 SA
BRANCH   8  10
HETATM   10  N   UNL     1      63.507   7.631   6.415  1.00  0.00    -0.388 N 
HETATM   11  H   UNL     1      63.292   8.567   6.632  1.00  0.00     0.157 HD
HETATM   12  H   UNL     1      63.927   7.053   7.093  1.00  0.00     0.157 HD
ENDBRANCH   8  10
ENDBRANCH   1   8
BRANCH   2  13
HETATM   13  N   UNL     1      61.781   8.974   3.262  1.00  0.00    -0.379 N 
HETATM   14  C   UNL     1      62.016  10.279   3.894  1.00  0.00     0.123 C 
HETATM   15  C   UNL     1      61.776  11.301   2.784  1.00  0.00     0.021 C 
HETATM   16  C   UNL     1      62.123  10.529   1.526  1.00  0.00     0.021 C 
HETATM   17  C   UNL     1      61.540   9.146   1.815  1.00  0.00     0.123 C 
ENDBRANCH   2  13
BRANCH   3  18
HETATM   18  C   UNL     1      57.572   6.523   4.328  1.00  0.00     0.418 C 
HETATM   19  F   UNL     1      57.221   5.282   3.891  1.00  0.00    -0.166 F 
HETATM   20  F   UNL     1      56.926   6.698   5.513  1.00  0.00    -0.166 F 
HETATM   21  F   UNL     1      57.000   7.398   3.455  1.00  0.00    -0.166 F 
ENDBRANCH   3  18
TORSDOF 4
ENDMDL
MODEL 6
REMARK VINA RESULT:      -4.7      3.970      5.668
REMARK  4 active torsions:
REMARK  status: ('A' for Active; 'I' for Inactive)
REMARK    1  A    between atoms: C_1  and  C_8 
REMARK    2  A    between atoms: C_2  and  N_9 
REMARK    3  A    between atoms: C_3  and  C_6 
REMARK    4  A    between atoms: C_8  and  N_15 
ROOT
HETATM    1  C   UNL     1      61.247   6.751   5.142  1.00  0.00     0.097 A 
HETATM    2  C   UNL     1      60.768   7.441   4.001  1.00  0.00     0.061 A 
HETATM    3  C   UNL     1      58.540   6.631   4.659  1.00  0.00     0.065 A 
HETATM    4  N   UNL     1      60.447   6.037   5.995  1.00  0.00    -0.361 N 
ATOM      5  HN  UNL     1      60.841   5.545   6.797  1.00  0.00     0.165 HD
HETATM    6  C   UNL     1      59.381   7.335   3.783  1.00  0.00     0.049 A 
HETATM    7  C   UNL     1      59.125   6.004   5.742  1.00  0.00     0.104 A 
ENDROOT
BRANCH   1   8
HETATM    8  C   UNL     1      62.680   6.832   5.602  1.00  0.00     0.123 C 
HETATM    9  S   UNL     1      63.876   5.722   5.221  1.00  0.00    -0.058 SA
BRANCH   8  10
HETATM   10  N   UNL     1      63.027   7.898   6.401  1.00  0.00    -0.388 N 
HETATM   11  H   UNL     1      62.457   8.700   6.427  1.00  0.00     0.157 HD
HETATM   12  H   UNL     1      63.846   7.857   6.948  1.00  0.00     0.157 HD
ENDBRANCH   8  10
ENDBRANCH   1   8
BRANCH   2  13
HETATM   13  N   UNL     1      61.575   8.194   3.148  1.00  0.00    -0.379 N 
HETATM   14  C   UNL     1      61.744   9.646   3.292  1.00  0.00     0.123 C 
HETATM   15  C   UNL     1      61.758  10.183   1.862  1.00  0.00     0.021 C 
HETATM   16  C   UNL     1      62.298   9.014   1.062  1.00  0.00     0.021 C 
HETATM   17  C   UNL     1      61.614   7.817   1.721  1.00  0.00     0.123 C 
ENDBRANCH   2  13
BRANCH   3  18
HETATM   18  C   UNL     1      57.057   6.554   4.472  1.00  0.00     0.418 C 
HETATM   19  F   UNL     1      56.352   6.994   5.551  1.00  0.00    -0.166 F 
HETATM   20  F   UNL     1      56.623   7.295   3.415  1.00  0.00    -0.166 F 
HETATM   21  F   UNL     1      56.627   5.283   4.241  1.00  0.00    -0.166 F 
ENDBRANCH   3  18
TORSDOF 4
ENDMDL
MODEL 7
REMARK VINA RESULT:      -4.6      2.490      3.481
REMARK  4 active torsions:
REMARK  status: ('A' for Active; 'I' for Inactive)
REMARK    1  A    between atoms: C_1  and  C_8 
REMARK    2  A    between atoms: C_2  and  N_9 
REMARK    3  A    between atoms: C_3  and  C_6 
REMARK    4  A    between atoms: C_8  and  N_15 
ROOT
HETATM    1  C   UNL     1      61.911   6.669   4.643  1.00  0.00     0.097 A 
HETATM    2  C   UNL     1      63.114   7.334   4.297  1.00  0.00     0.061 A 
HETATM    3  C   UNL     1      61.815   8.374   2.485  1.00  0.00     0.065 A 
HETATM    4  N   UNL     1      60.730   6.826   3.967  1.00  0.00    -0.361 N 
ATOM      5  HN  UNL     1      59.893   6.315   4.247  1.00  0.00     0.165 HD
HETATM    6  C   UNL     1      63.022   8.180   3.175  1.00  0.00     0.049 A 
HETATM    7  C   UNL     1      60.708   7.675   2.922  1.00  0.00     0.104 A 
ENDROOT
BRANCH   1   8
HETATM    8  C   UNL     1      61.782   5.808   5.873  1.00  0.00     0.123 C 
HETATM    9  S   UNL     1      62.383   4.251   6.024  1.00  0.00    -0.058 SA
BRANCH   8  10
HETATM   10  N   UNL     1      61.111   6.342   6.950  1.00  0.00    -0.388 N 
HETATM   11  H   UNL     1      61.574   6.457   7.811  1.00  0.00     0.157 HD
HETATM   12  H   UNL     1      60.167   6.608   6.859  1.00  0.00     0.157 HD
ENDBRANCH   8  10
ENDBRANCH   1   8
BRANCH   2  13
HETATM   13  N   UNL     1      64.311   7.200   5.001  1.00  0.00    -0.379 N 
HETATM   14  C   UNL     1      65.049   8.352   5.536  1.00  0.00     0.123 C 
HETATM   15  C   UNL     1      66.521   8.021   5.294  1.00  0.00     0.021 C 
HETATM   16  C   UNL     1      66.539   6.505   5.315  1.00  0.00     0.021 C 
HETATM   17  C   UNL     1      65.253   6.148   4.571  1.00  0.00     0.123 C 
ENDBRANCH   2  13
BRANCH   3  18
HETATM   18  C   UNL     1      61.688   9.312   1.325  1.00  0.00     0.418 C 
HETATM   19  F   UNL     1      61.724  10.625   1.683  1.00  0.00    -0.166 F 
HETATM   20  F   UNL     1      62.678   9.148   0.406  1.00  0.00    -0.166 F 
HETATM   21  F   UNL     1      60.518   9.145   0.648  1.00  0.00    -0.166 F 
ENDBRANCH   3  18
TORSDOF 4
ENDMDL
MODEL 8
REMARK VINA RESULT:      -4.6      4.047      5.290
REMARK  4 active torsions:
REMARK  status: ('A' for Active; 'I' for Inactive)
REMARK    1  A    between atoms: C_1  and  C_8 
REMARK    2  A    between atoms: C_2  and  N_9 
REMARK    3  A    between atoms: C_3  and  C_6 
REMARK    4  A    between atoms: C_8  and  N_15 
ROOT
HETATM    1  C   UNL     1      61.087   8.351   3.161  1.00  0.00     0.097 A 
HETATM    2  C   UNL     1      61.972   7.653   4.020  1.00  0.00     0.061 A 
HETATM    3  C   UNL     1      59.968   6.510   4.873  1.00  0.00     0.065 A 
HETATM    4  N   UNL     1      59.730   8.163   3.146  1.00  0.00    -0.361 N 
ATOM      5  HN  UNL     1      59.132   8.700   2.517  1.00  0.00     0.165 HD
HETATM    6  C   UNL     1      61.353   6.737   4.890  1.00  0.00     0.049 A 
HETATM    7  C   UNL     1      59.210   7.248   3.985  1.00  0.00     0.104 A 
ENDROOT
BRANCH   1   8
HETATM    8  C   UNL     1      61.567   9.293   2.086  1.00  0.00     0.123 C 
HETATM    9  S   UNL     1      62.215   8.821   0.614  1.00  0.00    -0.058 SA
BRANCH   8  10
HETATM   10  N   UNL     1      61.471  10.642   2.340  1.00  0.00    -0.388 N 
HETATM   11  H   UNL     1      62.242  11.130   2.710  1.00  0.00     0.157 HD
HETATM   12  H   UNL     1      60.630  11.120   2.151  1.00  0.00     0.157 HD
ENDBRANCH   8  10
ENDBRANCH   1   8
BRANCH   2  13
HETATM   13  N   UNL     1      63.357   7.820   4.016  1.00  0.00    -0.379 N 
HETATM   14  C   UNL     1      64.273   6.845   3.408  1.00  0.00     0.123 C 
HETATM   15  C   UNL     1      65.463   6.778   4.363  1.00  0.00     0.021 C 
HETATM   16  C   UNL     1      65.472   8.154   5.000  1.00  0.00     0.021 C 
HETATM   17  C   UNL     1      63.983   8.432   5.206  1.00  0.00     0.123 C 
ENDBRANCH   2  13
BRANCH   3  18
HETATM   18  C   UNL     1      59.301   5.500   5.754  1.00  0.00     0.418 C 
HETATM   19  F   UNL     1      59.158   4.280   5.167  1.00  0.00    -0.166 F 
HETATM   20  F   UNL     1      59.984   5.280   6.911  1.00  0.00    -0.166 F 
HETATM   21  F   UNL     1      58.048   5.882   6.125  1.00  0.00    -0.166 F 
ENDBRANCH   3  18
TORSDOF 4
ENDMDL
MODEL 9
REMARK VINA RESULT:      -4.5      1.353      1.889
REMARK  4 active torsions:
REMARK  status: ('A' for Active; 'I' for Inactive)
REMARK    1  A    between atoms: C_1  and  C_8 
REMARK    2  A    between atoms: C_2  and  N_9 
REMARK    3  A    between atoms: C_3  and  C_6 
REMARK    4  A    between atoms: C_8  and  N_15 
ROOT
HETATM    1  C   UNL     1      64.590   6.769   5.860  1.00  0.00     0.097 A 
HETATM    2  C   UNL     1      64.721   6.368   4.508  1.00  0.00     0.061 A 
HETATM    3  C   UNL     1      63.159   8.198   3.993  1.00  0.00     0.065 A 
HETATM    4  N   UNL     1      63.798   7.807   6.276  1.00  0.00    -0.361 N 
ATOM      5  HN  UNL     1      63.726   8.049   7.265  1.00  0.00     0.165 HD
HETATM    6  C   UNL     1      63.956   7.115   3.592  1.00  0.00     0.049 A 
HETATM    7  C   UNL     1      63.118   8.497   5.341  1.00  0.00     0.104 A 
ENDROOT
BRANCH   1   8
HETATM    8  C   UNL     1      65.408   6.164   6.972  1.00  0.00     0.123 C 
HETATM    9  S   UNL     1      66.680   6.926   7.754  1.00  0.00    -0.058 SA
BRANCH   8  10
HETATM   10  N   UNL     1      65.086   4.886   7.369  1.00  0.00    -0.388 N 
HETATM   11  H   UNL     1      64.237   4.480   7.081  1.00  0.00     0.157 HD
HETATM   12  H   UNL     1      65.706   4.378   7.942  1.00  0.00     0.157 HD
ENDBRANCH   8  10
ENDBRANCH   1   8
BRANCH   2  13
HETATM   13  N   UNL     1      65.550   5.332   4.077  1.00  0.00    -0.379 N 
HETATM   14  C   UNL     1      66.949   5.547   3.682  1.00  0.00     0.123 C 
HETATM   15  C   UNL     1      67.157   4.639   2.471  1.00  0.00     0.021 C 
HETATM   16  C   UNL     1      66.166   3.516   2.709  1.00  0.00     0.021 C 
HETATM   17  C   UNL     1      64.949   4.260   3.258  1.00  0.00     0.123 C 
ENDBRANCH   2  13
BRANCH   3  18
HETATM   18  C   UNL     1      62.383   9.036   3.026  1.00  0.00     0.418 C 
HETATM   19  F   UNL     1      61.046   8.773   3.033  1.00  0.00    -0.166 F 
HETATM   20  F   UNL     1      62.502  10.369   3.273  1.00  0.00    -0.166 F 
HETATM   21  F   UNL     1      62.789   8.855   1.739  1.00  0.00    -0.166 F 
ENDBRANCH   3  18
TORSDOF 4
ENDMDL
