MODEL 1
REMARK VINA RESULT:      -4.9      0.000      0.000
REMARK  0 active torsions:
REMARK  status: ('A' for Active; 'I' for Inactive)
ROOT
HETATM    1  C   UNL     1      62.595   8.674   3.864  1.00  0.00     0.028 A 
HETATM    2  C   UNL     1      62.861   8.323   5.284  1.00  0.00     0.161 C 
HETATM    3  C   UNL     1      62.610   7.708   2.847  1.00  0.00     0.014 A 
HETATM    4  S   UNL     1      62.976   5.980   3.100  1.00  0.00    -0.129 SA
HETATM    5  C   UNL     1      62.302  10.013   3.563  1.00  0.00     0.040 A 
HETATM    6  O   UNL     1      63.014   9.210   6.119  1.00  0.00    -0.292 OA
HETATM    7  C   UNL     1      62.313   8.101   1.534  1.00  0.00     0.021 A 
HETATM    8  C   UNL     1      62.009  10.383   2.254  1.00  0.00     0.035 A 
HETATM    9  C   UNL     1      62.866   6.866   5.678  1.00  0.00     0.094 C 
HETATM   10  C   UNL     1      63.740   6.064   4.742  1.00  0.00     0.087 C 
HETATM   11  C   UNL     1      62.013   9.433   1.237  1.00  0.00     0.025 A 
HETATM   12 CL   UNL     1      61.625  12.019   1.889  1.00  0.00    -0.084 Cl
ENDROOT
TORSDOF 0
ENDMDL
MODEL 2
REMARK VINA RESULT:      -4.8      2.571      3.053
REMARK  0 active torsions:
REMARK  status: ('A' for Active; 'I' for Inactive)
ROOT
HETATM    1  C   UNL     1      65.082   7.946   4.977  1.00  0.00     0.028 A 
HETATM    2  C   UNL     1      66.170   7.901   5.988  1.00  0.00     0.161 C 
HETATM    3  C   UNL     1      64.908   6.926   4.030  1.00  0.00     0.014 A 
HETATM    4  S   UNL     1      65.959   5.491   3.887  1.00  0.00    -0.129 SA
HETATM    5  C   UNL     1      64.204   9.041   5.006  1.00  0.00     0.040 A 
HETATM    6  O   UNL     1      66.405   8.886   6.685  1.00  0.00    -0.292 OA
HETATM    7  C   UNL     1      63.838   7.012   3.129  1.00  0.00     0.021 A 
HETATM    8  C   UNL     1      63.147   9.108   4.103  1.00  0.00     0.035 A 
HETATM    9  C   UNL     1      66.922   6.607   6.183  1.00  0.00     0.094 C 
HETATM   10  C   UNL     1      67.385   6.055   4.855  1.00  0.00     0.087 C 
HETATM   11  C   UNL     1      62.959   8.098   3.164  1.00  0.00     0.025 A 
HETATM   12 CL   UNL     1      62.056  10.437   4.154  1.00  0.00    -0.084 Cl
ENDROOT
TORSDOF 0
ENDMDL
MODEL 3
REMARK VINA RESULT:      -4.7      3.005      4.103
REMARK  0 active torsions:
REMARK  status: ('A' for Active; 'I' for Inactive)
ROOT
HETATM    1  C   UNL     1      63.983   8.635   4.554  1.00  0.00     0.028 A 
HETATM    2  C   UNL     1      63.097   9.789   4.860  1.00  0.00     0.161 C 
HETATM    3  C   UNL     1      63.671   7.706   3.550  1.00  0.00     0.014 A 
HETATM    4  S   UNL     1      62.192   7.756   2.553  1.00  0.00    -0.129 SA
HETATM    5  C   UNL     1      65.172   8.508   5.291  1.00  0.00     0.040 A 
HETATM    6  O   UNL     1      63.306  10.479   5.854  1.00  0.00    -0.292 OA
HETATM    7  C   UNL     1      64.571   6.663   3.288  1.00  0.00     0.021 A 
HETATM    8  C   UNL     1      66.052   7.466   5.014  1.00  0.00     0.035 A 
HETATM    9  C   UNL     1      61.992  10.126   3.889  1.00  0.00     0.094 C 
HETATM   10  C   UNL     1      61.189   8.893   3.546  1.00  0.00     0.087 C 
HETATM   11  C   UNL     1      65.757   6.542   4.016  1.00  0.00     0.025 A 
HETATM   12 CL   UNL     1      67.519   7.323   5.900  1.00  0.00    -0.084 Cl
ENDROOT
TORSDOF 0
ENDMDL
MODEL 4
REMARK VINA RESULT:      -4.4      2.136      2.839
REMARK  0 active torsions:
REMARK  status: ('A' for Active; 'I' for Inactive)
ROOT
HETATM    1  C   UNL     1      62.831   8.281   3.050  1.00  0.00     0.028 A 
HETATM    2  C   UNL     1      63.303   6.874   3.125  1.00  0.00     0.161 C 
HETATM    3  C   UNL     1      62.243   8.805   1.889  1.00  0.00     0.014 A 
HETATM    4  S   UNL     1      62.018   7.894   0.372  1.00  0.00    -0.129 SA
HETATM    5  C   UNL     1      62.970   9.081   4.195  1.00  0.00     0.040 A 
HETATM    6  O   UNL     1      63.969   6.497   4.086  1.00  0.00    -0.292 OA
HETATM    7  C   UNL     1      61.785  10.130   1.900  1.00  0.00     0.021 A 
HETATM    8  C   UNL     1      62.509  10.394   4.186  1.00  0.00     0.035 A 
HETATM    9  C   UNL     1      62.886   5.914   2.037  1.00  0.00     0.094 C 
HETATM   10  C   UNL     1      63.149   6.509   0.673  1.00  0.00     0.087 C 
HETATM   11  C   UNL     1      61.916  10.923   3.043  1.00  0.00     0.025 A 
HETATM   12 CL   UNL     1      62.657  11.367   5.596  1.00  0.00    -0.084 Cl
ENDROOT
TORSDOF 0
ENDMDL
MODEL 5
REMARK VINA RESULT:      -4.1      3.485      4.745
REMARK  0 active torsions:
REMARK  status: ('A' for Active; 'I' for Inactive)
ROOT
HETATM    1  C   UNL     1      63.674   7.773   3.642  1.00  0.00     0.028 A 
HETATM    2  C   UNL     1      62.383   7.854   2.910  1.00  0.00     0.161 C 
HETATM    3  C   UNL     1      64.014   8.690   4.648  1.00  0.00     0.014 A 
HETATM    4  S   UNL     1      62.991  10.063   5.150  1.00  0.00    -0.129 SA
HETATM    5  C   UNL     1      64.550   6.727   3.313  1.00  0.00     0.040 A 
HETATM    6  O   UNL     1      62.191   7.150   1.921  1.00  0.00    -0.292 OA
HETATM    7  C   UNL     1      65.231   8.533   5.325  1.00  0.00     0.021 A 
HETATM    8  C   UNL     1      65.754   6.587   3.998  1.00  0.00     0.035 A 
HETATM    9  C   UNL     1      61.303   8.759   3.449  1.00  0.00     0.094 C 
HETATM   10  C   UNL     1      61.857  10.135   3.738  1.00  0.00     0.087 C 
HETATM   11  C   UNL     1      66.099   7.486   5.004  1.00  0.00     0.025 A 
HETATM   12 CL   UNL     1      66.817   5.291   3.613  1.00  0.00    -0.084 Cl
ENDROOT
TORSDOF 0
ENDMDL
MODEL 6
REMARK VINA RESULT:      -3.9      2.958      3.771
REMARK  0 active torsions:
REMARK  status: ('A' for Active; 'I' for Inactive)
ROOT
HETATM    1  C   UNL     1      64.687   7.211   3.899  1.00  0.00     0.028 A 
HETATM    2  C   UNL     1      65.606   6.080   3.608  1.00  0.00     0.161 C 
HETATM    3  C   UNL     1      64.919   8.101   4.959  1.00  0.00     0.014 A 
HETATM    4  S   UNL     1      66.289   7.980   6.096  1.00  0.00    -0.129 SA
HETATM    5  C   UNL     1      63.575   7.386   3.060  1.00  0.00     0.040 A 
HETATM    6  O   UNL     1      65.286   5.221   2.790  1.00  0.00    -0.292 OA
HETATM    7  C   UNL     1      64.033   9.169   5.155  1.00  0.00     0.021 A 
HETATM    8  C   UNL     1      62.707   8.454   3.270  1.00  0.00     0.035 A 
HETATM    9  C   UNL     1      66.956   6.055   4.282  1.00  0.00     0.094 C 
HETATM   10  C   UNL     1      66.812   6.276   5.770  1.00  0.00     0.087 C 
HETATM   11  C   UNL     1      62.931   9.347   4.314  1.00  0.00     0.025 A 
HETATM   12 CL   UNL     1      61.358   8.682   2.228  1.00  0.00    -0.084 Cl
ENDROOT
TORSDOF 0
ENDMDL
MODEL 7
REMARK VINA RESULT:      -3.9      2.528      3.070
REMARK  0 active torsions:
REMARK  status: ('A' for Active; 'I' for Inactive)
ROOT
HETATM    1  C   UNL     1      60.875   7.958   2.887  1.00  0.00     0.028 A 
HETATM    2  C   UNL     1      60.207   6.744   3.425  1.00  0.00     0.161 C 
HETATM    3  C   UNL     1      61.113   8.125   1.515  1.00  0.00     0.014 A 
HETATM    4  S   UNL     1      60.695   6.925   0.263  1.00  0.00    -0.129 SA
HETATM    5  C   UNL     1      61.247   8.960   3.797  1.00  0.00     0.040 A 
HETATM    6  O   UNL     1      60.171   6.547   4.638  1.00  0.00    -0.292 OA
HETATM    7  C   UNL     1      61.713   9.312   1.071  1.00  0.00     0.021 A 
HETATM    8  C   UNL     1      61.840  10.131   3.337  1.00  0.00     0.035 A 
HETATM    9  C   UNL     1      59.522   5.809   2.459  1.00  0.00     0.094 C 
HETATM   10  C   UNL     1      60.439   5.466   1.309  1.00  0.00     0.087 C 
HETATM   11  C   UNL     1      62.075  10.313   1.977  1.00  0.00     0.025 A 
HETATM   12 CL   UNL     1      62.274  11.369   4.449  1.00  0.00    -0.084 Cl
ENDROOT
TORSDOF 0
ENDMDL
MODEL 8
REMARK VINA RESULT:      -3.8      6.545      7.551
REMARK  0 active torsions:
REMARK  status: ('A' for Active; 'I' for Inactive)
ROOT
HETATM    1  C   UNL     1      67.564   4.698   6.824  1.00  0.00     0.028 A 
HETATM    2  C   UNL     1      67.831   4.582   8.282  1.00  0.00     0.161 C 
HETATM    3  C   UNL     1      67.089   5.887   6.251  1.00  0.00     0.014 A 
HETATM    4  S   UNL     1      66.716   7.372   7.167  1.00  0.00    -0.129 SA
HETATM    5  C   UNL     1      67.823   3.578   6.018  1.00  0.00     0.040 A 
HETATM    6  O   UNL     1      68.075   3.484   8.778  1.00  0.00    -0.292 OA
HETATM    7  C   UNL     1      66.895   5.940   4.863  1.00  0.00     0.021 A 
HETATM    8  C   UNL     1      67.624   3.652   4.643  1.00  0.00     0.035 A 
HETATM    9  C   UNL     1      67.864   5.841   9.112  1.00  0.00     0.094 C 
HETATM   10  C   UNL     1      66.642   6.688   8.845  1.00  0.00     0.087 C 
HETATM   11  C   UNL     1      67.162   4.828   4.061  1.00  0.00     0.025 A 
HETATM   12 CL   UNL     1      67.965   2.288   3.652  1.00  0.00    -0.084 Cl
ENDROOT
TORSDOF 0
ENDMDL
MODEL 9
REMARK VINA RESULT:      -3.8      4.181      5.037
REMARK  0 active torsions:
REMARK  status: ('A' for Active; 'I' for Inactive)
ROOT
HETATM    1  C   UNL     1      64.784   6.909   6.011  1.00  0.00     0.028 A 
HETATM    2  C   UNL     1      65.633   8.122   5.880  1.00  0.00     0.161 C 
HETATM    3  C   UNL     1      65.335   5.619   6.044  1.00  0.00     0.014 A 
HETATM    4  S   UNL     1      67.077   5.261   5.901  1.00  0.00    -0.129 SA
HETATM    5  C   UNL     1      63.397   7.088   6.125  1.00  0.00     0.040 A 
HETATM    6  O   UNL     1      65.115   9.217   5.677  1.00  0.00    -0.292 OA
HETATM    7  C   UNL     1      64.479   4.520   6.208  1.00  0.00     0.021 A 
HETATM    8  C   UNL     1      62.564   5.985   6.288  1.00  0.00     0.035 A 
HETATM    9  C   UNL     1      67.124   7.983   6.071  1.00  0.00     0.094 C 
HETATM   10  C   UNL     1      67.664   6.843   5.239  1.00  0.00     0.087 C 
HETATM   11  C   UNL     1      63.099   4.701   6.331  1.00  0.00     0.025 A 
HETATM   12 CL   UNL     1      60.867   6.206   6.453  1.00  0.00    -0.084 Cl
ENDROOT
TORSDOF 0
ENDMDL
