MODEL 1
REMARK VINA RESULT:      -5.8      0.000      0.000
REMARK  0 active torsions:
REMARK  status: ('A' for Active; 'I' for Inactive)
ROOT
HETATM    1  S   UNL     1      63.683   7.680   5.821  1.00  0.00     0.176 S 
HETATM    2  C   UNL     1      63.085   8.879   4.676  1.00  0.00     0.073 A 
HETATM    3  C   UNL     1      62.932   8.571   3.323  1.00  0.00     0.033 A 
HETATM    4  C   UNL     1      63.294   7.249   2.743  1.00  0.00     0.162 C 
HETATM    5  C   UNL     1      63.540   6.147   4.948  1.00  0.00     0.153 C 
HETATM    6  O   UNL     1      62.751   7.648   6.929  1.00  0.00    -0.223 OA
HETATM    7  O   UNL     1      65.088   7.968   6.013  1.00  0.00    -0.223 OA
HETATM    8  C   UNL     1      62.734  10.140   5.174  1.00  0.00     0.026 A 
HETATM    9  C   UNL     1      64.121   6.293   3.564  1.00  0.00     0.099 C 
HETATM   10  C   UNL     1      62.418   9.551   2.460  1.00  0.00     0.040 A 
HETATM   11  O   UNL     1      62.951   6.972   1.598  1.00  0.00    -0.292 OA
HETATM   12  C   UNL     1      62.079  10.811   2.953  1.00  0.00     0.035 A 
HETATM   13  C   UNL     1      62.234  11.109   4.306  1.00  0.00     0.025 A 
HETATM   14 CL   UNL     1      61.469  12.012   1.883  1.00  0.00    -0.084 Cl
ENDROOT
TORSDOF 0
ENDMDL
MODEL 2
REMARK VINA RESULT:      -5.2      1.531      3.167
REMARK  0 active torsions:
REMARK  status: ('A' for Active; 'I' for Inactive)
ROOT
HETATM    1  S   UNL     1      63.006   6.115   3.152  1.00  0.00     0.176 S 
HETATM    2  C   UNL     1      62.592   7.800   2.842  1.00  0.00     0.073 A 
HETATM    3  C   UNL     1      62.578   8.740   3.873  1.00  0.00     0.033 A 
HETATM    4  C   UNL     1      62.863   8.396   5.293  1.00  0.00     0.162 C 
HETATM    5  C   UNL     1      63.750   6.146   4.758  1.00  0.00     0.153 C 
HETATM    6  O   UNL     1      64.030   5.747   2.196  1.00  0.00    -0.223 OA
HETATM    7  O   UNL     1      61.752   5.398   3.242  1.00  0.00    -0.223 OA
HETATM    8  C   UNL     1      62.312   8.172   1.521  1.00  0.00     0.026 A 
HETATM    9  C   UNL     1      62.888   6.945   5.702  1.00  0.00     0.099 C 
HETATM   10  C   UNL     1      62.275  10.076   3.567  1.00  0.00     0.040 A 
HETATM   11  O   UNL     1      63.033   9.291   6.115  1.00  0.00    -0.292 OA
HETATM   12  C   UNL     1      61.985  10.445   2.254  1.00  0.00     0.035 A 
HETATM   13  C   UNL     1      62.003   9.499   1.230  1.00  0.00     0.025 A 
HETATM   14 CL   UNL     1      61.596  12.081   1.892  1.00  0.00    -0.084 Cl
ENDROOT
TORSDOF 0
ENDMDL
MODEL 3
REMARK VINA RESULT:      -5.1      2.967      4.782
REMARK  0 active torsions:
REMARK  status: ('A' for Active; 'I' for Inactive)
ROOT
HETATM    1  S   UNL     1      62.126   7.916   2.622  1.00  0.00     0.176 S 
HETATM    2  C   UNL     1      63.619   7.758   3.544  1.00  0.00     0.073 A 
HETATM    3  C   UNL     1      63.938   8.662   4.559  1.00  0.00     0.033 A 
HETATM    4  C   UNL     1      63.085   9.830   4.907  1.00  0.00     0.162 C 
HETATM    5  C   UNL     1      61.150   9.042   3.577  1.00  0.00     0.153 C 
HETATM    6  O   UNL     1      61.470   6.624   2.651  1.00  0.00    -0.223 OA
HETATM    7  O   UNL     1      62.484   8.562   1.377  1.00  0.00    -0.223 OA
HETATM    8  C   UNL     1      64.458   6.676   3.250  1.00  0.00     0.026 A 
HETATM    9  C   UNL     1      61.983  10.238   3.962  1.00  0.00     0.099 C 
HETATM   10  C   UNL     1      65.123   8.471   5.287  1.00  0.00     0.040 A 
HETATM   11  O   UNL     1      63.312  10.467   5.931  1.00  0.00    -0.292 OA
HETATM   12  C   UNL     1      65.965   7.400   4.988  1.00  0.00     0.035 A 
HETATM   13  C   UNL     1      65.637   6.501   3.973  1.00  0.00     0.025 A 
HETATM   14 CL   UNL     1      67.424   7.186   5.872  1.00  0.00    -0.084 Cl
ENDROOT
TORSDOF 0
ENDMDL
MODEL 4
REMARK VINA RESULT:      -5.0      2.721      4.013
REMARK  0 active torsions:
REMARK  status: ('A' for Active; 'I' for Inactive)
ROOT
HETATM    1  S   UNL     1      66.045   5.471   4.159  1.00  0.00     0.176 S 
HETATM    2  C   UNL     1      64.954   6.855   4.172  1.00  0.00     0.073 A 
HETATM    3  C   UNL     1      65.137   7.908   5.070  1.00  0.00     0.033 A 
HETATM    4  C   UNL     1      66.216   7.928   6.093  1.00  0.00     0.162 C 
HETATM    5  C   UNL     1      67.442   6.019   5.100  1.00  0.00     0.153 C 
HETATM    6  O   UNL     1      66.478   5.284   2.790  1.00  0.00    -0.223 OA
HETATM    7  O   UNL     1      65.378   4.421   4.900  1.00  0.00    -0.223 OA
HETATM    8  C   UNL     1      63.919   6.880   3.229  1.00  0.00     0.026 A 
HETATM    9  C   UNL     1      66.972   6.656   6.383  1.00  0.00     0.099 C 
HETATM   10  C   UNL     1      64.260   9.003   5.015  1.00  0.00     0.040 A 
HETATM   11  O   UNL     1      66.450   8.961   6.713  1.00  0.00    -0.292 OA
HETATM   12  C   UNL     1      63.222   9.024   4.084  1.00  0.00     0.035 A 
HETATM   13  C   UNL     1      63.048   7.968   3.190  1.00  0.00     0.025 A 
HETATM   14 CL   UNL     1      62.141  10.361   4.038  1.00  0.00    -0.084 Cl
ENDROOT
TORSDOF 0
ENDMDL
MODEL 5
REMARK VINA RESULT:      -5.0      1.610      1.962
REMARK  0 active torsions:
REMARK  status: ('A' for Active; 'I' for Inactive)
ROOT
HETATM    1  S   UNL     1      65.223   7.476   5.915  1.00  0.00     0.176 S 
HETATM    2  C   UNL     1      64.120   7.943   4.623  1.00  0.00     0.073 A 
HETATM    3  C   UNL     1      64.062   7.223   3.429  1.00  0.00     0.033 A 
HETATM    4  C   UNL     1      64.937   6.054   3.140  1.00  0.00     0.162 C 
HETATM    5  C   UNL     1      65.723   5.835   5.478  1.00  0.00     0.153 C 
HETATM    6  O   UNL     1      64.441   7.393   7.131  1.00  0.00    -0.223 OA
HETATM    7  O   UNL     1      66.371   8.350   5.804  1.00  0.00    -0.223 OA
HETATM    8  C   UNL     1      63.278   9.040   4.846  1.00  0.00     0.026 A 
HETATM    9  C   UNL     1      66.129   5.797   4.027  1.00  0.00     0.099 C 
HETATM   10  C   UNL     1      63.141   7.615   2.445  1.00  0.00     0.040 A 
HETATM   11  O   UNL     1      64.703   5.343   2.167  1.00  0.00    -0.292 OA
HETATM   12  C   UNL     1      62.310   8.714   2.662  1.00  0.00     0.035 A 
HETATM   13  C   UNL     1      62.374   9.427   3.858  1.00  0.00     0.025 A 
HETATM   14 CL   UNL     1      61.198   9.200   1.442  1.00  0.00    -0.084 Cl
ENDROOT
TORSDOF 0
ENDMDL
MODEL 6
REMARK VINA RESULT:      -4.9      2.213      3.460
REMARK  0 active torsions:
REMARK  status: ('A' for Active; 'I' for Inactive)
ROOT
HETATM    1  S   UNL     1      63.512   8.129   5.387  1.00  0.00     0.176 S 
HETATM    2  C   UNL     1      62.433   8.126   3.993  1.00  0.00     0.073 A 
HETATM    3  C   UNL     1      61.939   9.319   3.462  1.00  0.00     0.033 A 
HETATM    4  C   UNL     1      62.242  10.656   4.041  1.00  0.00     0.162 C 
HETATM    5  C   UNL     1      64.051   9.811   5.507  1.00  0.00     0.153 C 
HETATM    6  O   UNL     1      64.660   7.318   5.037  1.00  0.00    -0.223 OA
HETATM    7  O   UNL     1      62.688   7.829   6.539  1.00  0.00    -0.223 OA
HETATM    8  C   UNL     1      62.115   6.891   3.415  1.00  0.00     0.026 A 
HETATM    9  C   UNL     1      62.863  10.734   5.412  1.00  0.00     0.099 C 
HETATM   10  C   UNL     1      61.111   9.264   2.329  1.00  0.00     0.040 A 
HETATM   11  O   UNL     1      61.949  11.671   3.417  1.00  0.00    -0.292 OA
HETATM   12  C   UNL     1      60.785   8.033   1.760  1.00  0.00     0.035 A 
HETATM   13  C   UNL     1      61.284   6.847   2.297  1.00  0.00     0.025 A 
HETATM   14 CL   UNL     1      59.753   7.974   0.384  1.00  0.00    -0.084 Cl
ENDROOT
TORSDOF 0
ENDMDL
MODEL 7
REMARK VINA RESULT:      -4.8      2.376      3.906
REMARK  0 active torsions:
REMARK  status: ('A' for Active; 'I' for Inactive)
ROOT
HETATM    1  S   UNL     1      63.698   8.916   5.258  1.00  0.00     0.176 S 
HETATM    2  C   UNL     1      63.646   7.848   3.858  1.00  0.00     0.073 A 
HETATM    3  C   UNL     1      62.860   8.155   2.745  1.00  0.00     0.033 A 
HETATM    4  C   UNL     1      61.991   9.360   2.671  1.00  0.00     0.162 C 
HETATM    5  C   UNL     1      62.991  10.428   4.669  1.00  0.00     0.153 C 
HETATM    6  O   UNL     1      65.095   9.164   5.552  1.00  0.00    -0.223 OA
HETATM    7  O   UNL     1      62.801   8.343   6.239  1.00  0.00    -0.223 OA
HETATM    8  C   UNL     1      64.445   6.698   3.882  1.00  0.00     0.026 A 
HETATM    9  C   UNL     1      61.708  10.137   3.932  1.00  0.00     0.099 C 
HETATM   10  C   UNL     1      62.881   7.289   1.641  1.00  0.00     0.040 A 
HETATM   11  O   UNL     1      61.484   9.682   1.600  1.00  0.00    -0.292 OA
HETATM   12  C   UNL     1      63.668   6.138   1.669  1.00  0.00     0.035 A 
HETATM   13  C   UNL     1      64.451   5.839   2.784  1.00  0.00     0.025 A 
HETATM   14 CL   UNL     1      63.672   5.071   0.319  1.00  0.00    -0.084 Cl
ENDROOT
TORSDOF 0
ENDMDL
MODEL 8
REMARK VINA RESULT:      -4.6      1.599      2.057
REMARK  0 active torsions:
REMARK  status: ('A' for Active; 'I' for Inactive)
ROOT
HETATM    1  S   UNL     1      63.722   7.172   6.239  1.00  0.00     0.176 S 
HETATM    2  C   UNL     1      63.317   7.619   4.583  1.00  0.00     0.073 A 
HETATM    3  C   UNL     1      63.459   6.707   3.535  1.00  0.00     0.033 A 
HETATM    4  C   UNL     1      63.991   5.330   3.721  1.00  0.00     0.162 C 
HETATM    5  C   UNL     1      63.830   5.406   6.191  1.00  0.00     0.153 C 
HETATM    6  O   UNL     1      62.585   7.525   7.064  1.00  0.00    -0.223 OA
HETATM    7  O   UNL     1      65.044   7.705   6.491  1.00  0.00    -0.223 OA
HETATM    8  C   UNL     1      62.816   8.907   4.357  1.00  0.00     0.026 A 
HETATM    9  C   UNL     1      64.675   4.979   5.018  1.00  0.00     0.099 C 
HETATM   10  C   UNL     1      63.090   7.101   2.240  1.00  0.00     0.040 A 
HETATM   11  O   UNL     1      63.904   4.514   2.808  1.00  0.00    -0.292 OA
HETATM   12  C   UNL     1      62.600   8.388   2.012  1.00  0.00     0.035 A 
HETATM   13  C   UNL     1      62.461   9.291   3.065  1.00  0.00     0.025 A 
HETATM   14 CL   UNL     1      62.169   8.869   0.418  1.00  0.00    -0.084 Cl
ENDROOT
TORSDOF 0
ENDMDL
MODEL 9
REMARK VINA RESULT:      -4.6      1.902      3.066
REMARK  0 active torsions:
REMARK  status: ('A' for Active; 'I' for Inactive)
ROOT
HETATM    1  S   UNL     1      63.355   5.457   4.967  1.00  0.00     0.176 S 
HETATM    2  C   UNL     1      62.956   7.121   4.545  1.00  0.00     0.073 A 
HETATM    3  C   UNL     1      63.757   8.183   4.969  1.00  0.00     0.033 A 
HETATM    4  C   UNL     1      64.960   8.004   5.826  1.00  0.00     0.162 C 
HETATM    5  C   UNL     1      65.031   5.547   5.526  1.00  0.00     0.153 C 
HETATM    6  O   UNL     1      63.337   4.692   3.737  1.00  0.00    -0.223 OA
HETATM    7  O   UNL     1      62.514   5.111   6.093  1.00  0.00    -0.223 OA
HETATM    8  C   UNL     1      61.830   7.341   3.742  1.00  0.00     0.026 A 
HETATM    9  C   UNL     1      65.179   6.679   6.511  1.00  0.00     0.099 C 
HETATM   10  C   UNL     1      63.416   9.487   4.577  1.00  0.00     0.040 A 
HETATM   11  O   UNL     1      65.732   8.943   5.997  1.00  0.00    -0.292 OA
HETATM   12  C   UNL     1      62.288   9.708   3.786  1.00  0.00     0.035 A 
HETATM   13  C   UNL     1      61.495   8.640   3.367  1.00  0.00     0.025 A 
HETATM   14 CL   UNL     1      61.866  11.311   3.327  1.00  0.00    -0.084 Cl
ENDROOT
TORSDOF 0
ENDMDL
