MODEL 1
REMARK VINA RESULT:      -5.7      0.000      0.000
REMARK  3 active torsions:
REMARK  status: ('A' for Active; 'I' for Inactive)
REMARK    1  A    between atoms: C_1  and  C_7 
REMARK    2  A    between atoms: C_2  and  C_8 
REMARK    3  A    between atoms: C_5  and  N_9 
ROOT
HETATM    1  C   UNL     1      62.102   6.951   5.246  1.00  0.00     0.147 A 
HETATM    2  C   UNL     1      62.841   8.103   4.798  1.00  0.00     0.052 A 
HETATM    3  N   UNL     1      62.810   6.245   6.153  1.00  0.00    -0.292 N 
ATOM      4  HN  UNL     1      62.522   5.400   6.648  1.00  0.00     0.187 HD
HETATM    5  C   UNL     1      64.049   8.029   5.481  1.00  0.00     0.129 A 
HETATM    6  N   UNL     1      63.974   6.901   6.259  1.00  0.00    -0.280 N 
HETATM    7  C   UNL     1      64.986   6.383   7.151  1.00  0.00     0.179 C 
ENDROOT
BRANCH   2   8
HETATM    8  C   UNL     1      62.494   9.157   3.844  1.00  0.00    -0.020 A 
HETATM    9  C   UNL     1      62.245  10.468   4.274  1.00  0.00     0.012 A 
HETATM   10  C   UNL     1      61.876  11.465   3.368  1.00  0.00     0.001 A 
HETATM   11  C   UNL     1      61.792  11.178   2.006  1.00  0.00     0.000 A 
HETATM   12  C   UNL     1      62.066   9.891   1.555  1.00  0.00     0.001 A 
HETATM   13  C   UNL     1      62.391   8.885   2.469  1.00  0.00     0.012 A 
ENDBRANCH   2   8
BRANCH   1  14
HETATM   14  C   UNL     1      60.729   6.478   4.844  1.00  0.00     0.434 C 
HETATM   15  F   UNL     1      59.952   7.441   4.281  1.00  0.00    -0.165 F 
HETATM   16  F   UNL     1      60.774   5.465   3.933  1.00  0.00    -0.165 F 
HETATM   17  F   UNL     1      60.027   6.005   5.913  1.00  0.00    -0.165 F 
ENDBRANCH   1  14
BRANCH   5  18
HETATM   18  N   UNL     1      65.141   8.830   5.479  1.00  0.00    -0.384 N 
HETATM   19  H   UNL     1      65.279   9.473   4.747  1.00  0.00     0.157 HD
HETATM   20  H   UNL     1      65.798   8.768   6.210  1.00  0.00     0.157 HD
ENDBRANCH   5  18
TORSDOF 3
ENDMDL
MODEL 2
REMARK VINA RESULT:      -5.7      2.587      3.304
REMARK  3 active torsions:
REMARK  status: ('A' for Active; 'I' for Inactive)
REMARK    1  A    between atoms: C_1  and  C_7 
REMARK    2  A    between atoms: C_2  and  C_8 
REMARK    3  A    between atoms: C_5  and  N_9 
ROOT
HETATM    1  C   UNL     1      63.581   7.399   5.409  1.00  0.00     0.147 A 
HETATM    2  C   UNL     1      62.437   7.809   4.637  1.00  0.00     0.052 A 
HETATM    3  N   UNL     1      63.297   6.308   6.153  1.00  0.00    -0.292 N 
ATOM      4  HN  UNL     1      63.924   5.797   6.774  1.00  0.00     0.187 HD
HETATM    5  C   UNL     1      61.441   6.905   4.984  1.00  0.00     0.129 A 
HETATM    6  N   UNL     1      62.008   6.048   5.893  1.00  0.00    -0.280 N 
HETATM    7  C   UNL     1      61.376   4.933   6.560  1.00  0.00     0.179 C 
ENDROOT
BRANCH   2   8
HETATM    8  C   UNL     1      62.260   8.911   3.689  1.00  0.00    -0.020 A 
HETATM    9  C   UNL     1      62.087  10.228   4.136  1.00  0.00     0.012 A 
HETATM   10  C   UNL     1      61.879  11.272   3.232  1.00  0.00     0.001 A 
HETATM   11  C   UNL     1      61.885  11.024   1.860  1.00  0.00     0.000 A 
HETATM   12  C   UNL     1      62.088   9.729   1.395  1.00  0.00     0.001 A 
HETATM   13  C   UNL     1      62.250   8.679   2.304  1.00  0.00     0.012 A 
ENDBRANCH   2   8
BRANCH   1  14
HETATM   14  C   UNL     1      64.959   8.007   5.477  1.00  0.00     0.434 C 
HETATM   15  F   UNL     1      64.966   9.365   5.519  1.00  0.00    -0.165 F 
HETATM   16  F   UNL     1      65.651   7.602   6.579  1.00  0.00    -0.165 F 
HETATM   17  F   UNL     1      65.716   7.660   4.397  1.00  0.00    -0.165 F 
ENDBRANCH   1  14
BRANCH   5  18
HETATM   18  N   UNL     1      60.153   6.778   4.582  1.00  0.00    -0.384 N 
HETATM   19  H   UNL     1      59.562   6.126   5.023  1.00  0.00     0.157 HD
HETATM   20  H   UNL     1      59.809   7.338   3.848  1.00  0.00     0.157 HD
ENDBRANCH   5  18
TORSDOF 3
ENDMDL
MODEL 3
REMARK VINA RESULT:      -5.2      1.146      1.831
REMARK  3 active torsions:
REMARK  status: ('A' for Active; 'I' for Inactive)
REMARK    1  A    between atoms: C_1  and  C_7 
REMARK    2  A    between atoms: C_2  and  C_8 
REMARK    3  A    between atoms: C_5  and  N_9 
ROOT
HETATM    1  C   UNL     1      62.913   6.537   5.900  1.00  0.00     0.147 A 
HETATM    2  C   UNL     1      63.545   7.660   5.259  1.00  0.00     0.052 A 
HETATM    3  N   UNL     1      63.831   5.714   6.452  1.00  0.00    -0.292 N 
ATOM      4  HN  UNL     1      63.663   4.859   6.982  1.00  0.00     0.187 HD
HETATM    5  C   UNL     1      64.906   7.446   5.443  1.00  0.00     0.129 A 
HETATM    6  N   UNL     1      65.011   6.272   6.147  1.00  0.00    -0.280 N 
HETATM    7  C   UNL     1      66.223   5.615   6.580  1.00  0.00     0.179 C 
ENDROOT
BRANCH   2   8
HETATM    8  C   UNL     1      62.979   8.805   4.546  1.00  0.00    -0.020 A 
HETATM    9  C   UNL     1      62.549   8.689   3.217  1.00  0.00     0.012 A 
HETATM   10  C   UNL     1      62.045   9.793   2.524  1.00  0.00     0.001 A 
HETATM   11  C   UNL     1      61.920  11.024   3.164  1.00  0.00     0.000 A 
HETATM   12  C   UNL     1      62.311  11.153   4.493  1.00  0.00     0.001 A 
HETATM   13  C   UNL     1      62.857  10.059   5.170  1.00  0.00     0.012 A 
ENDBRANCH   2   8
BRANCH   1  14
HETATM   14  C   UNL     1      61.449   6.199   6.015  1.00  0.00     0.434 C 
HETATM   15  F   UNL     1      60.879   6.587   7.187  1.00  0.00    -0.165 F 
HETATM   16  F   UNL     1      60.703   6.781   5.034  1.00  0.00    -0.165 F 
HETATM   17  F   UNL     1      61.233   4.856   5.918  1.00  0.00    -0.165 F 
ENDBRANCH   1  14
BRANCH   5  18
HETATM   18  N   UNL     1      65.995   8.161   5.071  1.00  0.00    -0.384 N 
HETATM   19  H   UNL     1      66.194   9.019   5.511  1.00  0.00     0.157 HD
HETATM   20  H   UNL     1      66.586   7.822   4.361  1.00  0.00     0.157 HD
ENDBRANCH   5  18
TORSDOF 3
ENDMDL
MODEL 4
REMARK VINA RESULT:      -5.1      2.485      5.004
REMARK  3 active torsions:
REMARK  status: ('A' for Active; 'I' for Inactive)
REMARK    1  A    between atoms: C_1  and  C_7 
REMARK    2  A    between atoms: C_2  and  C_8 
REMARK    3  A    between atoms: C_5  and  N_9 
ROOT
HETATM    1  C   UNL     1      63.451   7.943   3.410  1.00  0.00     0.147 A 
HETATM    2  C   UNL     1      64.063   8.375   4.640  1.00  0.00     0.052 A 
HETATM    3  N   UNL     1      62.606   8.882   2.933  1.00  0.00    -0.292 N 
ATOM      4  HN  UNL     1      62.058   8.849   2.074  1.00  0.00     0.187 HD
HETATM    5  C   UNL     1      63.512   9.627   4.881  1.00  0.00     0.129 A 
HETATM    6  N   UNL     1      62.649   9.867   3.842  1.00  0.00    -0.280 N 
HETATM    7  C   UNL     1      61.825  11.036   3.638  1.00  0.00     0.179 C 
ENDROOT
BRANCH   2   8
HETATM    8  C   UNL     1      65.039   7.719   5.512  1.00  0.00    -0.020 A 
HETATM    9  C   UNL     1      66.416   7.892   5.313  1.00  0.00     0.012 A 
HETATM   10  C   UNL     1      67.347   7.235   6.122  1.00  0.00     0.001 A 
HETATM   11  C   UNL     1      66.916   6.427   7.173  1.00  0.00     0.000 A 
HETATM   12  C   UNL     1      65.554   6.268   7.406  1.00  0.00     0.001 A 
HETATM   13  C   UNL     1      64.624   6.890   6.568  1.00  0.00     0.012 A 
ENDBRANCH   2   8
BRANCH   1  14
HETATM   14  C   UNL     1      63.633   6.653   2.652  1.00  0.00     0.434 C 
HETATM   15  F   UNL     1      64.904   6.172   2.668  1.00  0.00    -0.165 F 
HETATM   16  F   UNL     1      62.855   5.647   3.142  1.00  0.00    -0.165 F 
HETATM   17  F   UNL     1      63.300   6.792   1.336  1.00  0.00    -0.165 F 
ENDBRANCH   1  14
BRANCH   5  18
HETATM   18  N   UNL     1      63.703  10.525   5.879  1.00  0.00    -0.384 N 
HETATM   19  H   UNL     1      63.519  11.479   5.724  1.00  0.00     0.157 HD
HETATM   20  H   UNL     1      64.027  10.221   6.758  1.00  0.00     0.157 HD
ENDBRANCH   5  18
TORSDOF 3
ENDMDL
MODEL 5
REMARK VINA RESULT:      -4.9      2.521      3.747
REMARK  3 active torsions:
REMARK  status: ('A' for Active; 'I' for Inactive)
REMARK    1  A    between atoms: C_1  and  C_7 
REMARK    2  A    between atoms: C_2  and  C_8 
REMARK    3  A    between atoms: C_5  and  N_9 
ROOT
HETATM    1  C   UNL     1      63.235   9.279   4.319  1.00  0.00     0.147 A 
HETATM    2  C   UNL     1      63.386   8.055   3.577  1.00  0.00     0.052 A 
HETATM    3  N   UNL     1      64.196   9.396   5.260  1.00  0.00    -0.292 N 
ATOM      4  HN  UNL     1      64.340  10.168   5.911  1.00  0.00     0.187 HD
HETATM    5  C   UNL     1      64.490   7.434   4.150  1.00  0.00     0.129 A 
HETATM    6  N   UNL     1      64.918   8.272   5.148  1.00  0.00    -0.280 N 
HETATM    7  C   UNL     1      66.033   8.070   6.045  1.00  0.00     0.179 C 
ENDROOT
BRANCH   2   8
HETATM    8  C   UNL     1      62.609   7.499   2.468  1.00  0.00    -0.020 A 
HETATM    9  C   UNL     1      62.493   8.184   1.251  1.00  0.00     0.012 A 
HETATM   10  C   UNL     1      61.719   7.670   0.208  1.00  0.00     0.001 A 
HETATM   11  C   UNL     1      61.081   6.439   0.348  1.00  0.00     0.000 A 
HETATM   12  C   UNL     1      61.210   5.728   1.536  1.00  0.00     0.001 A 
HETATM   13  C   UNL     1      61.948   6.265   2.595  1.00  0.00     0.012 A 
ENDBRANCH   2   8
BRANCH   1  14
HETATM   14  C   UNL     1      62.199  10.364   4.176  1.00  0.00     0.434 C 
HETATM   15  F   UNL     1      60.917   9.913   4.178  1.00  0.00    -0.165 F 
HETATM   16  F   UNL     1      62.266  11.282   5.180  1.00  0.00    -0.165 F 
HETATM   17  F   UNL     1      62.352  11.055   3.010  1.00  0.00    -0.165 F 
ENDBRANCH   1  14
BRANCH   5  18
HETATM   18  N   UNL     1      65.116   6.264   3.876  1.00  0.00    -0.384 N 
HETATM   19  H   UNL     1      65.273   5.610   4.594  1.00  0.00     0.157 HD
HETATM   20  H   UNL     1      65.414   6.070   2.957  1.00  0.00     0.157 HD
ENDBRANCH   5  18
TORSDOF 3
ENDMDL
MODEL 6
REMARK VINA RESULT:      -4.9      2.997      4.575
REMARK  3 active torsions:
REMARK  status: ('A' for Active; 'I' for Inactive)
REMARK    1  A    between atoms: C_1  and  C_7 
REMARK    2  A    between atoms: C_2  and  C_8 
REMARK    3  A    between atoms: C_5  and  N_9 
ROOT
HETATM    1  C   UNL     1      61.081   8.271   2.788  1.00  0.00     0.147 A 
HETATM    2  C   UNL     1      61.822   7.607   3.828  1.00  0.00     0.052 A 
HETATM    3  N   UNL     1      59.754   8.061   2.928  1.00  0.00    -0.292 N 
ATOM      4  HN  UNL     1      59.000   8.428   2.348  1.00  0.00     0.187 HD
HETATM    5  C   UNL     1      60.854   6.965   4.590  1.00  0.00     0.129 A 
HETATM    6  N   UNL     1      59.651   7.263   4.001  1.00  0.00    -0.280 N 
HETATM    7  C   UNL     1      58.338   6.824   4.416  1.00  0.00     0.179 C 
ENDROOT
BRANCH   2   8
HETATM    8  C   UNL     1      63.259   7.551   4.100  1.00  0.00    -0.020 A 
HETATM    9  C   UNL     1      63.869   8.476   4.959  1.00  0.00     0.012 A 
HETATM   10  C   UNL     1      65.246   8.445   5.188  1.00  0.00     0.001 A 
HETATM   11  C   UNL     1      66.034   7.460   4.594  1.00  0.00     0.000 A 
HETATM   12  C   UNL     1      65.444   6.514   3.763  1.00  0.00     0.001 A 
HETATM   13  C   UNL     1      64.072   6.574   3.501  1.00  0.00     0.012 A 
ENDBRANCH   2   8
BRANCH   1  14
HETATM   14  C   UNL     1      61.582   9.112   1.642  1.00  0.00     0.434 C 
HETATM   15  F   UNL     1      62.787   8.721   1.150  1.00  0.00    -0.165 F 
HETATM   16  F   UNL     1      60.731   9.101   0.578  1.00  0.00    -0.165 F 
HETATM   17  F   UNL     1      61.730  10.419   2.003  1.00  0.00    -0.165 F 
ENDBRANCH   1  14
BRANCH   5  18
HETATM   18  N   UNL     1      60.939   6.192   5.700  1.00  0.00    -0.384 N 
HETATM   19  H   UNL     1      60.242   6.247   6.392  1.00  0.00     0.157 HD
HETATM   20  H   UNL     1      61.699   5.576   5.812  1.00  0.00     0.157 HD
ENDBRANCH   5  18
TORSDOF 3
ENDMDL
MODEL 7
REMARK VINA RESULT:      -4.8      3.009      5.174
REMARK  3 active torsions:
REMARK  status: ('A' for Active; 'I' for Inactive)
REMARK    1  A    between atoms: C_1  and  C_7 
REMARK    2  A    between atoms: C_2  and  C_8 
REMARK    3  A    between atoms: C_5  and  N_9 
ROOT
HETATM    1  C   UNL     1      63.229   8.815   4.134  1.00  0.00     0.147 A 
HETATM    2  C   UNL     1      64.155   7.716   4.215  1.00  0.00     0.052 A 
HETATM    3  N   UNL     1      62.491   8.744   3.005  1.00  0.00    -0.292 N 
ATOM      4  HN  UNL     1      61.750   9.377   2.704  1.00  0.00     0.187 HD
HETATM    5  C   UNL     1      63.940   6.992   3.048  1.00  0.00     0.129 A 
HETATM    6  N   UNL     1      62.951   7.658   2.368  1.00  0.00    -0.280 N 
HETATM    7  C   UNL     1      62.377   7.306   1.090  1.00  0.00     0.179 C 
ENDROOT
BRANCH   2   8
HETATM    8  C   UNL     1      65.140   7.360   5.238  1.00  0.00    -0.020 A 
HETATM    9  C   UNL     1      64.741   6.815   6.466  1.00  0.00     0.012 A 
HETATM   10  C   UNL     1      65.679   6.512   7.456  1.00  0.00     0.001 A 
HETATM   11  C   UNL     1      67.038   6.709   7.219  1.00  0.00     0.000 A 
HETATM   12  C   UNL     1      67.457   7.220   5.995  1.00  0.00     0.001 A 
HETATM   13  C   UNL     1      66.513   7.564   5.022  1.00  0.00     0.012 A 
ENDBRANCH   2   8
BRANCH   1  14
HETATM   14  C   UNL     1      63.007   9.953   5.096  1.00  0.00     0.434 C 
HETATM   15  F   UNL     1      64.146  10.588   5.479  1.00  0.00    -0.165 F 
HETATM   16  F   UNL     1      62.204  10.924   4.576  1.00  0.00    -0.165 F 
HETATM   17  F   UNL     1      62.406   9.531   6.245  1.00  0.00    -0.165 F 
ENDBRANCH   1  14
BRANCH   5  18
HETATM   18  N   UNL     1      64.506   5.859   2.567  1.00  0.00    -0.384 N 
HETATM   19  H   UNL     1      64.028   5.315   1.901  1.00  0.00     0.157 HD
HETATM   20  H   UNL     1      65.394   5.579   2.886  1.00  0.00     0.157 HD
ENDBRANCH   5  18
TORSDOF 3
ENDMDL
MODEL 8
REMARK VINA RESULT:      -4.7      2.361      3.201
REMARK  3 active torsions:
REMARK  status: ('A' for Active; 'I' for Inactive)
REMARK    1  A    between atoms: C_1  and  C_7 
REMARK    2  A    between atoms: C_2  and  C_8 
REMARK    3  A    between atoms: C_5  and  N_9 
ROOT
HETATM    1  C   UNL     1      59.306   6.869   4.364  1.00  0.00     0.147 A 
HETATM    2  C   UNL     1      60.646   7.296   4.056  1.00  0.00     0.052 A 
HETATM    3  N   UNL     1      59.315   5.764   5.140  1.00  0.00    -0.292 N 
ATOM      4  HN  UNL     1      58.513   5.264   5.522  1.00  0.00     0.187 HD
HETATM    5  C   UNL     1      61.461   6.360   4.682  1.00  0.00     0.129 A 
HETATM    6  N   UNL     1      60.614   5.473   5.298  1.00  0.00    -0.280 N 
HETATM    7  C   UNL     1      60.977   4.311   6.075  1.00  0.00     0.179 C 
ENDROOT
BRANCH   2   8
HETATM    8  C   UNL     1      61.139   8.428   3.271  1.00  0.00    -0.020 A 
HETATM    9  C   UNL     1      61.326   8.320   1.886  1.00  0.00     0.012 A 
HETATM   10  C   UNL     1      61.834   9.389   1.143  1.00  0.00     0.001 A 
HETATM   11  C   UNL     1      62.123  10.601   1.767  1.00  0.00     0.000 A 
HETATM   12  C   UNL     1      61.915  10.739   3.136  1.00  0.00     0.001 A 
HETATM   13  C   UNL     1      61.449   9.654   3.884  1.00  0.00     0.012 A 
ENDBRANCH   2   8
BRANCH   1  14
HETATM   14  C   UNL     1      57.989   7.472   3.946  1.00  0.00     0.434 C 
HETATM   15  F   UNL     1      56.917   6.660   4.146  1.00  0.00    -0.165 F 
HETATM   16  F   UNL     1      57.707   8.622   4.619  1.00  0.00    -0.165 F 
HETATM   17  F   UNL     1      57.979   7.788   2.619  1.00  0.00    -0.165 F 
ENDBRANCH   1  14
BRANCH   5  18
HETATM   18  N   UNL     1      62.809   6.237   4.755  1.00  0.00    -0.384 N 
HETATM   19  H   UNL     1      63.372   6.545   4.010  1.00  0.00     0.157 HD
HETATM   20  H   UNL     1      63.223   5.840   5.556  1.00  0.00     0.157 HD
ENDBRANCH   5  18
TORSDOF 3
ENDMDL
MODEL 9
REMARK VINA RESULT:      -4.6      2.581      3.695
REMARK  3 active torsions:
REMARK  status: ('A' for Active; 'I' for Inactive)
REMARK    1  A    between atoms: C_1  and  C_7 
REMARK    2  A    between atoms: C_2  and  C_8 
REMARK    3  A    between atoms: C_5  and  N_9 
ROOT
HETATM    1  C   UNL     1      60.972   6.591   5.041  1.00  0.00     0.147 A 
HETATM    2  C   UNL     1      60.425   7.469   4.040  1.00  0.00     0.052 A 
HETATM    3  N   UNL     1      60.022   5.768   5.535  1.00  0.00    -0.292 N 
ATOM      4  HN  UNL     1      60.135   5.036   6.237  1.00  0.00     0.187 HD
HETATM    5  C   UNL     1      59.078   7.134   3.982  1.00  0.00     0.129 A 
HETATM    6  N   UNL     1      58.899   6.129   4.899  1.00  0.00    -0.280 N 
HETATM    7  C   UNL     1      57.668   5.445   5.220  1.00  0.00     0.179 C 
ENDROOT
BRANCH   2   8
HETATM    8  C   UNL     1      61.054   8.510   3.225  1.00  0.00    -0.020 A 
HETATM    9  C   UNL     1      61.436   9.735   3.787  1.00  0.00     0.012 A 
HETATM   10  C   UNL     1      62.000  10.743   3.000  1.00  0.00     0.001 A 
HETATM   11  C   UNL     1      62.232  10.525   1.643  1.00  0.00     0.000 A 
HETATM   12  C   UNL     1      61.889   9.304   1.072  1.00  0.00     0.001 A 
HETATM   13  C   UNL     1      61.284   8.314   1.853  1.00  0.00     0.012 A 
ENDBRANCH   2   8
BRANCH   1  14
HETATM   14  C   UNL     1      62.383   6.494   5.563  1.00  0.00     0.434 C 
HETATM   15  F   UNL     1      62.619   5.396   6.329  1.00  0.00    -0.165 F 
HETATM   16  F   UNL     1      63.305   6.446   4.561  1.00  0.00    -0.165 F 
HETATM   17  F   UNL     1      62.709   7.569   6.336  1.00  0.00    -0.165 F 
ENDBRANCH   1  14
BRANCH   5  18
HETATM   18  N   UNL     1      58.057   7.609   3.227  1.00  0.00    -0.384 N 
HETATM   19  H   UNL     1      57.605   7.017   2.584  1.00  0.00     0.157 HD
HETATM   20  H   UNL     1      57.770   8.546   3.323  1.00  0.00     0.157 HD
ENDBRANCH   5  18
TORSDOF 3
ENDMDL
