MODEL 1
REMARK VINA RESULT:      -4.9      0.000      0.000
REMARK  2 active torsions:
REMARK  status: ('A' for Active; 'I' for Inactive)
REMARK    1  A    between atoms: C_1  and  N_4 
REMARK       I    between atoms: N_4  and  C_7 
REMARK    2  A    between atoms: C_8  and  O_12 
ROOT
HETATM    1  C   UNL     1      63.924   8.577   4.519  1.00  0.00     0.078 A 
HETATM    2  C   UNL     1      63.721   7.674   3.463  1.00  0.00     0.065 A 
HETATM    3  C   UNL     1      63.072   9.720   4.525  1.00  0.00     0.065 A 
HETATM    4  C   UNL     1      62.736   7.925   2.487  1.00  0.00     0.063 A 
HETATM    5  C   UNL     1      62.084   9.954   3.558  1.00  0.00     0.063 A 
HETATM    6  C   UNL     1      61.912   9.043   2.532  1.00  0.00     0.071 A 
HETATM    7 CL   UNL     1      63.221  10.938   5.766  1.00  0.00    -0.082 Cl
HETATM    8 CL   UNL     1      64.570   6.210   3.168  1.00  0.00    -0.082 Cl
ENDROOT
BRANCH   1   9
HETATM    9  N   UNL     1      64.847   8.548   5.597  1.00  0.00    -0.325 N 
HETATM   10  C   UNL     1      66.141   8.268   5.879  1.00  0.00     0.218 C 
HETATM   11  O   UNL     1      66.486   8.422   7.058  1.00  0.00    -0.274 OA
HETATM   12  C   UNL     1      67.147   7.798   4.890  1.00  0.00     0.117 C 
HETATM   13  H   UNL     1      64.388   8.825   6.423  1.00  0.00     0.169 HD
ENDBRANCH   1   9
BRANCH   6  14
HETATM   14  O   UNL     1      61.032   9.160   1.498  1.00  0.00    -0.356 OA
HETATM   15  C   UNL     1      61.063   8.118   0.529  1.00  0.00     0.210 C 
ENDBRANCH   6  14
TORSDOF 2
ENDMDL
MODEL 2
REMARK VINA RESULT:      -4.7      2.667      5.742
REMARK  2 active torsions:
REMARK  status: ('A' for Active; 'I' for Inactive)
REMARK    1  A    between atoms: C_1  and  N_4 
REMARK       I    between atoms: N_4  and  C_7 
REMARK    2  A    between atoms: C_8  and  O_12 
ROOT
HETATM    1  C   UNL     1      60.997   8.523   3.320  1.00  0.00     0.078 A 
HETATM    2  C   UNL     1      61.898   9.598   3.394  1.00  0.00     0.065 A 
HETATM    3  C   UNL     1      61.265   7.433   4.198  1.00  0.00     0.065 A 
HETATM    4  C   UNL     1      62.990   9.555   4.284  1.00  0.00     0.063 A 
HETATM    5  C   UNL     1      62.346   7.405   5.091  1.00  0.00     0.063 A 
HETATM    6  C   UNL     1      63.213   8.481   5.137  1.00  0.00     0.071 A 
HETATM    7 CL   UNL     1      60.242   6.019   4.203  1.00  0.00    -0.082 Cl
HETATM    8 CL   UNL     1      61.859  11.054   2.482  1.00  0.00    -0.082 Cl
ENDROOT
BRANCH   1   9
HETATM    9  N   UNL     1      59.848   8.333   2.507  1.00  0.00    -0.325 N 
HETATM   10  C   UNL     1      59.479   7.928   1.270  1.00  0.00     0.218 C 
HETATM   11  O   UNL     1      58.264   7.933   1.036  1.00  0.00    -0.274 OA
HETATM   12  C   UNL     1      60.416   7.491   0.201  1.00  0.00     0.117 C 
HETATM   13  H   UNL     1      59.045   8.583   3.020  1.00  0.00     0.169 HD
ENDBRANCH   1   9
BRANCH   6  14
HETATM   14  O   UNL     1      64.329   8.576   5.913  1.00  0.00    -0.356 OA
HETATM   15  C   UNL     1      65.544   8.131   5.319  1.00  0.00     0.210 C 
ENDBRANCH   6  14
TORSDOF 2
ENDMDL
MODEL 3
REMARK VINA RESULT:      -4.7      0.591      2.516
REMARK  2 active torsions:
REMARK  status: ('A' for Active; 'I' for Inactive)
REMARK    1  A    between atoms: C_1  and  N_4 
REMARK       I    between atoms: N_4  and  C_7 
REMARK    2  A    between atoms: C_8  and  O_12 
ROOT
HETATM    1  C   UNL     1      63.616   8.479   4.737  1.00  0.00     0.078 A 
HETATM    2  C   UNL     1      62.959   9.705   4.536  1.00  0.00     0.065 A 
HETATM    3  C   UNL     1      63.482   7.528   3.684  1.00  0.00     0.065 A 
HETATM    4  C   UNL     1      62.218   9.933   3.359  1.00  0.00     0.063 A 
HETATM    5  C   UNL     1      62.754   7.770   2.510  1.00  0.00     0.063 A 
HETATM    6  C   UNL     1      62.121   8.987   2.346  1.00  0.00     0.071 A 
HETATM    7 CL   UNL     1      64.226   5.954   3.803  1.00  0.00    -0.082 Cl
HETATM    8 CL   UNL     1      62.924  11.053   5.599  1.00  0.00    -0.082 Cl
ENDROOT
BRANCH   1   9
HETATM    9  N   UNL     1      64.400   8.018   5.827  1.00  0.00    -0.325 N 
HETATM   10  C   UNL     1      65.682   7.764   6.179  1.00  0.00     0.218 C 
HETATM   11  O   UNL     1      65.857   7.356   7.335  1.00  0.00    -0.274 OA
HETATM   12  C   UNL     1      66.862   7.937   5.291  1.00  0.00     0.117 C 
HETATM   13  H   UNL     1      63.808   7.811   6.586  1.00  0.00     0.169 HD
ENDBRANCH   1   9
BRANCH   6  14
HETATM   14  O   UNL     1      61.340   9.346   1.287  1.00  0.00    -0.356 OA
HETATM   15  C   UNL     1      60.404   8.371   0.841  1.00  0.00     0.210 C 
ENDBRANCH   6  14
TORSDOF 2
ENDMDL
MODEL 4
REMARK VINA RESULT:      -4.5      1.894      5.568
REMARK  2 active torsions:
REMARK  status: ('A' for Active; 'I' for Inactive)
REMARK    1  A    between atoms: C_1  and  N_4 
REMARK       I    between atoms: N_4  and  C_7 
REMARK    2  A    between atoms: C_8  and  O_12 
ROOT
HETATM    1  C   UNL     1      63.443   7.612   3.293  1.00  0.00     0.078 A 
HETATM    2  C   UNL     1      63.264   8.754   4.090  1.00  0.00     0.065 A 
HETATM    3  C   UNL     1      64.598   6.830   3.588  1.00  0.00     0.065 A 
HETATM    4  C   UNL     1      64.195   9.076   5.097  1.00  0.00     0.063 A 
HETATM    5  C   UNL     1      65.511   7.150   4.603  1.00  0.00     0.063 A 
HETATM    6  C   UNL     1      65.303   8.282   5.367  1.00  0.00     0.071 A 
HETATM    7 CL   UNL     1      64.961   5.392   2.668  1.00  0.00    -0.082 Cl
HETATM    8 CL   UNL     1      61.985   9.898   3.996  1.00  0.00    -0.082 Cl
ENDROOT
BRANCH   1   9
HETATM    9  N   UNL     1      62.661   7.095   2.227  1.00  0.00    -0.325 N 
HETATM   10  C   UNL     1      62.085   7.462   1.059  1.00  0.00     0.218 C 
HETATM   11  O   UNL     1      61.476   6.573   0.450  1.00  0.00    -0.274 OA
HETATM   12  C   UNL     1      62.135   8.829   0.475  1.00  0.00     0.117 C 
HETATM   13  H   UNL     1      62.471   6.144   2.397  1.00  0.00     0.169 HD
ENDBRANCH   1   9
BRANCH   6  14
HETATM   14  O   UNL     1      66.126   8.746   6.350  1.00  0.00    -0.356 OA
HETATM   15  C   UNL     1      66.784   7.757   7.134  1.00  0.00     0.210 C 
ENDBRANCH   6  14
TORSDOF 2
ENDMDL
MODEL 5
REMARK VINA RESULT:      -4.4      1.858      4.967
REMARK  2 active torsions:
REMARK  status: ('A' for Active; 'I' for Inactive)
REMARK    1  A    between atoms: C_1  and  N_4 
REMARK       I    between atoms: N_4  and  C_7 
REMARK    2  A    between atoms: C_8  and  O_12 
ROOT
HETATM    1  C   UNL     1      63.089   7.667   3.344  1.00  0.00     0.078 A 
HETATM    2  C   UNL     1      64.258   6.964   3.677  1.00  0.00     0.065 A 
HETATM    3  C   UNL     1      62.891   8.897   4.036  1.00  0.00     0.065 A 
HETATM    4  C   UNL     1      65.146   7.472   4.647  1.00  0.00     0.063 A 
HETATM    5  C   UNL     1      63.788   9.403   4.989  1.00  0.00     0.063 A 
HETATM    6  C   UNL     1      64.929   8.684   5.292  1.00  0.00     0.071 A 
HETATM    7 CL   UNL     1      61.473   9.870   3.740  1.00  0.00    -0.082 Cl
HETATM    8 CL   UNL     1      64.790   5.464   3.031  1.00  0.00    -0.082 Cl
ENDROOT
BRANCH   1   9
HETATM    9  N   UNL     1      62.053   7.357   2.424  1.00  0.00    -0.325 N 
HETATM   10  C   UNL     1      61.629   7.638   1.170  1.00  0.00     0.218 C 
HETATM   11  O   UNL     1      60.600   7.058   0.802  1.00  0.00    -0.274 OA
HETATM   12  C   UNL     1      62.300   8.577   0.232  1.00  0.00     0.117 C 
HETATM   13  H   UNL     1      61.430   6.720   2.842  1.00  0.00     0.169 HD
ENDBRANCH   1   9
BRANCH   6  14
HETATM   14  O   UNL     1      65.862   9.021   6.227  1.00  0.00    -0.356 OA
HETATM   15  C   UNL     1      66.734   7.977   6.645  1.00  0.00     0.210 C 
ENDBRANCH   6  14
TORSDOF 2
ENDMDL
MODEL 6
REMARK VINA RESULT:      -4.4      2.797      5.527
REMARK  2 active torsions:
REMARK  status: ('A' for Active; 'I' for Inactive)
REMARK    1  A    between atoms: C_1  and  N_4 
REMARK       I    between atoms: N_4  and  C_7 
REMARK    2  A    between atoms: C_8  and  O_12 
ROOT
HETATM    1  C   UNL     1      61.004   8.076   3.418  1.00  0.00     0.078 A 
HETATM    2  C   UNL     1      61.201   7.112   4.421  1.00  0.00     0.065 A 
HETATM    3  C   UNL     1      61.998   9.093   3.337  1.00  0.00     0.065 A 
HETATM    4  C   UNL     1      62.317   7.190   5.277  1.00  0.00     0.063 A 
HETATM    5  C   UNL     1      63.114   9.154   4.184  1.00  0.00     0.063 A 
HETATM    6  C   UNL     1      63.276   8.189   5.160  1.00  0.00     0.071 A 
HETATM    7 CL   UNL     1      61.876  10.369   2.153  1.00  0.00    -0.082 Cl
HETATM    8 CL   UNL     1      60.198   5.764   4.780  1.00  0.00    -0.082 Cl
ENDROOT
BRANCH   1   9
HETATM    9  N   UNL     1      59.967   8.213   2.458  1.00  0.00    -0.325 N 
HETATM   10  C   UNL     1      59.638   7.861   1.193  1.00  0.00     0.218 C 
HETATM   11  O   UNL     1      58.533   8.247   0.791  1.00  0.00    -0.274 OA
HETATM   12  C   UNL     1      60.498   7.063   0.279  1.00  0.00     0.117 C 
HETATM   13  H   UNL     1      59.238   8.750   2.845  1.00  0.00     0.169 HD
ENDBRANCH   1   9
BRANCH   6  14
HETATM   14  O   UNL     1      64.278   8.146   6.084  1.00  0.00    -0.356 OA
HETATM   15  C   UNL     1      64.651   6.851   6.542  1.00  0.00     0.210 C 
ENDBRANCH   6  14
TORSDOF 2
ENDMDL
MODEL 7
REMARK VINA RESULT:      -4.4      3.042      3.953
REMARK  2 active torsions:
REMARK  status: ('A' for Active; 'I' for Inactive)
REMARK    1  A    between atoms: C_1  and  N_4 
REMARK       I    between atoms: N_4  and  C_7 
REMARK    2  A    between atoms: C_8  and  O_12 
ROOT
HETATM    1  C   UNL     1      64.878   6.608   6.353  1.00  0.00     0.078 A 
HETATM    2  C   UNL     1      65.486   7.778   5.871  1.00  0.00     0.065 A 
HETATM    3  C   UNL     1      63.505   6.440   6.009  1.00  0.00     0.065 A 
HETATM    4  C   UNL     1      64.747   8.706   5.110  1.00  0.00     0.063 A 
HETATM    5  C   UNL     1      62.782   7.361   5.238  1.00  0.00     0.063 A 
HETATM    6  C   UNL     1      63.413   8.502   4.781  1.00  0.00     0.071 A 
HETATM    7 CL   UNL     1      62.613   5.042   6.555  1.00  0.00    -0.082 Cl
HETATM    8 CL   UNL     1      67.114   8.277   6.103  1.00  0.00    -0.082 Cl
ENDROOT
BRANCH   1   9
HETATM    9  N   UNL     1      65.404   5.548   7.138  1.00  0.00    -0.325 N 
HETATM   10  C   UNL     1      66.120   5.314   8.262  1.00  0.00     0.218 C 
HETATM   11  O   UNL     1      66.316   4.125   8.545  1.00  0.00    -0.274 OA
HETATM   12  C   UNL     1      66.674   6.366   9.155  1.00  0.00     0.117 C 
HETATM   13  H   UNL     1      65.167   4.688   6.720  1.00  0.00     0.169 HD
ENDBRANCH   1   9
BRANCH   6  14
HETATM   14  O   UNL     1      62.829   9.506   4.067  1.00  0.00    -0.356 OA
HETATM   15  C   UNL     1      62.551  10.704   4.784  1.00  0.00     0.210 C 
ENDBRANCH   6  14
TORSDOF 2
ENDMDL
MODEL 8
REMARK VINA RESULT:      -4.0      3.371      5.640
REMARK  2 active torsions:
REMARK  status: ('A' for Active; 'I' for Inactive)
REMARK    1  A    between atoms: C_1  and  N_4 
REMARK       I    between atoms: N_4  and  C_7 
REMARK    2  A    between atoms: C_8  and  O_12 
ROOT
HETATM    1  C   UNL     1      61.301   7.181   4.225  1.00  0.00     0.078 A 
HETATM    2  C   UNL     1      61.969   8.158   3.469  1.00  0.00     0.065 A 
HETATM    3  C   UNL     1      61.873   6.890   5.498  1.00  0.00     0.065 A 
HETATM    4  C   UNL     1      63.131   8.779   3.969  1.00  0.00     0.063 A 
HETATM    5  C   UNL     1      63.021   7.523   5.994  1.00  0.00     0.063 A 
HETATM    6  C   UNL     1      63.652   8.481   5.222  1.00  0.00     0.071 A 
HETATM    7 CL   UNL     1      61.163   5.683   6.540  1.00  0.00    -0.082 Cl
HETATM    8 CL   UNL     1      61.542   8.737   1.908  1.00  0.00    -0.082 Cl
ENDROOT
BRANCH   1   9
HETATM    9  N   UNL     1      60.139   6.420   3.933  1.00  0.00    -0.325 N 
HETATM   10  C   UNL     1      58.793   6.530   3.846  1.00  0.00     0.218 C 
HETATM   11  O   UNL     1      58.183   5.502   3.520  1.00  0.00    -0.274 OA
HETATM   12  C   UNL     1      58.019   7.771   4.111  1.00  0.00     0.117 C 
HETATM   13  H   UNL     1      60.403   5.494   3.724  1.00  0.00     0.169 HD
ENDBRANCH   1   9
BRANCH   6  14
HETATM   14  O   UNL     1      64.799   9.142   5.548  1.00  0.00    -0.356 OA
HETATM   15  C   UNL     1      65.938   8.328   5.808  1.00  0.00     0.210 C 
ENDBRANCH   6  14
TORSDOF 2
ENDMDL
MODEL 9
REMARK VINA RESULT:      -4.0      3.355      4.409
REMARK  2 active torsions:
REMARK  status: ('A' for Active; 'I' for Inactive)
REMARK    1  A    between atoms: C_1  and  N_4 
REMARK       I    between atoms: N_4  and  C_7 
REMARK    2  A    between atoms: C_8  and  O_12 
ROOT
HETATM    1  C   UNL     1      60.881   7.745   2.823  1.00  0.00     0.078 A 
HETATM    2  C   UNL     1      59.743   7.213   3.452  1.00  0.00     0.065 A 
HETATM    3  C   UNL     1      60.698   8.171   1.476  1.00  0.00     0.065 A 
HETATM    4  C   UNL     1      58.522   7.116   2.756  1.00  0.00     0.063 A 
HETATM    5  C   UNL     1      59.475   8.085   0.796  1.00  0.00     0.063 A 
HETATM    6  C   UNL     1      58.376   7.556   1.446  1.00  0.00     0.071 A 
HETATM    7 CL   UNL     1      62.028   8.835   0.561  1.00  0.00    -0.082 Cl
HETATM    8 CL   UNL     1      59.626   6.616   5.059  1.00  0.00    -0.082 Cl
ENDROOT
BRANCH   1   9
HETATM    9  N   UNL     1      62.203   7.931   3.307  1.00  0.00    -0.325 N 
HETATM   10  C   UNL     1      62.966   8.808   3.999  1.00  0.00     0.218 C 
HETATM   11  O   UNL     1      64.146   8.478   4.180  1.00  0.00    -0.274 OA
HETATM   12  C   UNL     1      62.493  10.110   4.540  1.00  0.00     0.117 C 
HETATM   13  H   UNL     1      62.754   7.156   3.048  1.00  0.00     0.169 HD
ENDBRANCH   1   9
BRANCH   6  14
HETATM   14  O   UNL     1      57.141   7.363   0.901  1.00  0.00    -0.356 OA
HETATM   15  C   UNL     1      56.336   6.363   1.516  1.00  0.00     0.210 C 
ENDBRANCH   6  14
TORSDOF 2
ENDMDL
