MODEL 1
REMARK VINA RESULT:      -5.5      0.000      0.000
REMARK  4 active torsions:
REMARK  status: ('A' for Active; 'I' for Inactive)
REMARK    1  A    between atoms: N_1  and  C_10 
REMARK    2  A    between atoms: N_6  and  C_9 
REMARK    3  A    between atoms: C_9  and  C_11 
REMARK    4  A    between atoms: C_10  and  C_11 
ROOT
HETATM    1  N   UNL     1      63.351   7.993   3.903  1.00  0.00    -0.355 N 
HETATM    2  C   UNL     1      63.302   7.159   2.808  1.00  0.00     0.099 C 
HETATM    3  C   UNL     1      62.678   7.836   1.776  1.00  0.00    -0.034 C 
HETATM    4  C   UNL     1      62.730   9.188   3.609  1.00  0.00     0.045 A 
HETATM    5  C   UNL     1      62.402   9.155   2.253  1.00  0.00    -0.002 A 
HETATM    6  C   UNL     1      62.369   7.288   0.428  1.00  0.00     0.050 C 
HETATM    7  C   UNL     1      62.467  10.315   4.405  1.00  0.00     0.030 A 
HETATM    8  C   UNL     1      61.899  10.325   1.643  1.00  0.00     0.014 A 
HETATM    9  C   UNL     1      61.963  11.462   3.776  1.00  0.00     0.002 A 
HETATM   10  C   UNL     1      61.714  11.477   2.410  1.00  0.00     0.001 A 
ENDROOT
BRANCH   1  11
HETATM   11  C   UNL     1      64.153   7.722   5.086  1.00  0.00     0.141 C 
BRANCH  11  12
HETATM   12  C   UNL     1      65.658   7.634   4.845  1.00  0.00     0.124 C 
BRANCH  12  13
HETATM   13  C   UNL     1      66.344   8.133   6.107  1.00  0.00    -0.076 C 
BRANCH  13  14
HETATM   14  N   UNL     1      66.913   8.547   7.153  1.00  0.00    -0.370 N 
ATOM     15  HN2 UNL     1      66.470   8.186   6.308  1.00  0.00     0.165 HD
ATOM     16  HN1 UNL     1      67.373   8.883   7.999  1.00  0.00     0.165 HD
ENDBRANCH  13  14
ENDBRANCH  12  13
ENDBRANCH  11  12
ENDBRANCH   1  11
TORSDOF 4
ENDMDL
MODEL 2
REMARK VINA RESULT:      -5.1      0.811      2.821
REMARK  4 active torsions:
REMARK  status: ('A' for Active; 'I' for Inactive)
REMARK    1  A    between atoms: N_1  and  C_10 
REMARK    2  A    between atoms: N_6  and  C_9 
REMARK    3  A    between atoms: C_9  and  C_11 
REMARK    4  A    between atoms: C_10  and  C_11 
ROOT
HETATM    1  N   UNL     1      63.499   8.220   4.521  1.00  0.00    -0.355 N 
HETATM    2  C   UNL     1      63.175   9.450   5.049  1.00  0.00     0.099 C 
HETATM    3  C   UNL     1      62.500  10.172   4.081  1.00  0.00    -0.034 C 
HETATM    4  C   UNL     1      63.080   8.149   3.210  1.00  0.00     0.045 A 
HETATM    5  C   UNL     1      62.355   9.312   2.948  1.00  0.00    -0.002 A 
HETATM    6  C   UNL     1      62.013  11.572   4.211  1.00  0.00     0.050 C 
HETATM    7  C   UNL     1      63.237   7.142   2.243  1.00  0.00     0.030 A 
HETATM    8  C   UNL     1      61.668   9.427   1.720  1.00  0.00     0.014 A 
HETATM    9  C   UNL     1      62.548   7.284   1.029  1.00  0.00     0.002 A 
HETATM   10  C   UNL     1      61.749   8.393   0.785  1.00  0.00     0.001 A 
ENDROOT
BRANCH   1  11
HETATM   11  C   UNL     1      63.984   7.105   5.320  1.00  0.00     0.141 C 
BRANCH  11  12
HETATM   12  C   UNL     1      65.479   6.819   5.198  1.00  0.00     0.124 C 
BRANCH  12  13
HETATM   13  C   UNL     1      66.194   7.753   6.161  1.00  0.00    -0.076 C 
BRANCH  13  14
HETATM   14  N   UNL     1      66.788   8.526   6.960  1.00  0.00    -0.370 N 
ATOM     15  HN2 UNL     1      66.299   7.926   6.296  1.00  0.00     0.165 HD
ATOM     16  HN1 UNL     1      67.268   9.152   7.607  1.00  0.00     0.165 HD
ENDBRANCH  13  14
ENDBRANCH  12  13
ENDBRANCH  11  12
ENDBRANCH   1  11
TORSDOF 4
ENDMDL
MODEL 3
REMARK VINA RESULT:      -5.0      1.403      1.694
REMARK  4 active torsions:
REMARK  status: ('A' for Active; 'I' for Inactive)
REMARK    1  A    between atoms: N_1  and  C_10 
REMARK    2  A    between atoms: N_6  and  C_9 
REMARK    3  A    between atoms: C_9  and  C_11 
REMARK    4  A    between atoms: C_10  and  C_11 
ROOT
HETATM    1  N   UNL     1      64.641   7.998   4.808  1.00  0.00    -0.355 N 
HETATM    2  C   UNL     1      64.563   6.983   3.881  1.00  0.00     0.099 C 
HETATM    3  C   UNL     1      63.564   7.296   2.978  1.00  0.00    -0.034 C 
HETATM    4  C   UNL     1      63.677   8.947   4.544  1.00  0.00     0.045 A 
HETATM    5  C   UNL     1      63.066   8.587   3.342  1.00  0.00    -0.002 A 
HETATM    6  C   UNL     1      63.109   6.449   1.844  1.00  0.00     0.050 C 
HETATM    7  C   UNL     1      63.318  10.117   5.234  1.00  0.00     0.030 A 
HETATM    8  C   UNL     1      62.147   9.479   2.749  1.00  0.00     0.014 A 
HETATM    9  C   UNL     1      62.398  10.983   4.625  1.00  0.00     0.002 A 
HETATM   10  C   UNL     1      61.846  10.684   3.386  1.00  0.00     0.001 A 
ENDROOT
BRANCH   1  11
HETATM   11  C   UNL     1      65.737   8.141   5.755  1.00  0.00     0.141 C 
BRANCH  11  12
HETATM   12  C   UNL     1      67.107   7.714   5.234  1.00  0.00     0.124 C 
BRANCH  12  13
HETATM   13  C   UNL     1      67.584   6.568   6.112  1.00  0.00    -0.076 C 
BRANCH  13  14
HETATM   14  N   UNL     1      67.979   5.619   6.841  1.00  0.00    -0.370 N 
ATOM     15  HN2 UNL     1      67.690   6.393   6.244  1.00  0.00     0.165 HD
ATOM     16  HN1 UNL     1      68.298   4.850   7.431  1.00  0.00     0.165 HD
ENDBRANCH  13  14
ENDBRANCH  12  13
ENDBRANCH  11  12
ENDBRANCH   1  11
TORSDOF 4
ENDMDL
MODEL 4
REMARK VINA RESULT:      -4.9      1.618      2.240
REMARK  4 active torsions:
REMARK  status: ('A' for Active; 'I' for Inactive)
REMARK    1  A    between atoms: N_1  and  C_10 
REMARK    2  A    between atoms: N_6  and  C_9 
REMARK    3  A    between atoms: C_9  and  C_11 
REMARK    4  A    between atoms: C_10  and  C_11 
ROOT
HETATM    1  N   UNL     1      63.100   7.976   4.008  1.00  0.00    -0.355 N 
HETATM    2  C   UNL     1      63.136   7.105   2.942  1.00  0.00     0.099 C 
HETATM    3  C   UNL     1      62.658   7.766   1.825  1.00  0.00    -0.034 C 
HETATM    4  C   UNL     1      62.565   9.182   3.608  1.00  0.00     0.045 A 
HETATM    5  C   UNL     1      62.386   9.112   2.226  1.00  0.00    -0.002 A 
HETATM    6  C   UNL     1      62.475   7.181   0.470  1.00  0.00     0.050 C 
HETATM    7  C   UNL     1      62.265  10.346   4.334  1.00  0.00     0.030 A 
HETATM    8  C   UNL     1      62.002  10.276   1.526  1.00  0.00     0.014 A 
HETATM    9  C   UNL     1      61.880  11.488   3.616  1.00  0.00     0.002 A 
HETATM   10  C   UNL     1      61.783  11.462   2.230  1.00  0.00     0.001 A 
ENDROOT
BRANCH   1  11
HETATM   11  C   UNL     1      63.756   7.718   5.280  1.00  0.00     0.141 C 
BRANCH  11  12
HETATM   12  C   UNL     1      63.551   6.315   5.846  1.00  0.00     0.124 C 
BRANCH  12  13
HETATM   13  C   UNL     1      62.131   6.251   6.383  1.00  0.00    -0.076 C 
BRANCH  13  14
HETATM   14  N   UNL     1      60.952   6.197   6.828  1.00  0.00    -0.370 N 
ATOM     15  HN2 UNL     1      61.906   6.209   6.468  1.00  0.00     0.165 HD
ATOM     16  HN1 UNL     1      59.999   6.154   7.189  1.00  0.00     0.165 HD
ENDBRANCH  13  14
ENDBRANCH  12  13
ENDBRANCH  11  12
ENDBRANCH   1  11
TORSDOF 4
ENDMDL
MODEL 5
REMARK VINA RESULT:      -4.8      2.220      5.426
REMARK  4 active torsions:
REMARK  status: ('A' for Active; 'I' for Inactive)
REMARK    1  A    between atoms: N_1  and  C_10 
REMARK    2  A    between atoms: N_6  and  C_9 
REMARK    3  A    between atoms: C_9  and  C_11 
REMARK    4  A    between atoms: C_10  and  C_11 
ROOT
HETATM    1  N   UNL     1      62.230   9.222   2.348  1.00  0.00    -0.355 N 
HETATM    2  C   UNL     1      61.987  10.328   3.131  1.00  0.00     0.099 C 
HETATM    3  C   UNL     1      62.689  10.186   4.314  1.00  0.00    -0.034 C 
HETATM    4  C   UNL     1      63.049   8.342   3.024  1.00  0.00     0.045 A 
HETATM    5  C   UNL     1      63.439   8.973   4.207  1.00  0.00    -0.002 A 
HETATM    6  C   UNL     1      62.669  11.127   5.466  1.00  0.00     0.050 C 
HETATM    7  C   UNL     1      63.518   7.064   2.678  1.00  0.00     0.030 A 
HETATM    8  C   UNL     1      64.417   8.358   5.018  1.00  0.00     0.014 A 
HETATM    9  C   UNL     1      64.486   6.473   3.505  1.00  0.00     0.002 A 
HETATM   10  C   UNL     1      64.952   7.125   4.639  1.00  0.00     0.001 A 
ENDROOT
BRANCH   1  11
HETATM   11  C   UNL     1      61.870   9.136   0.941  1.00  0.00     0.141 C 
BRANCH  11  12
HETATM   12  C   UNL     1      61.120   7.869   0.538  1.00  0.00     0.124 C 
BRANCH  12  13
HETATM   13  C   UNL     1      59.706   7.992   1.083  1.00  0.00    -0.076 C 
BRANCH  13  14
HETATM   14  N   UNL     1      58.533   8.093   1.533  1.00  0.00    -0.370 N 
ATOM     15  HN2 UNL     1      59.489   7.993   1.194  1.00  0.00     0.165 HD
ATOM     16  HN1 UNL     1      57.584   8.176   1.898  1.00  0.00     0.165 HD
ENDBRANCH  13  14
ENDBRANCH  12  13
ENDBRANCH  11  12
ENDBRANCH   1  11
TORSDOF 4
ENDMDL
MODEL 6
REMARK VINA RESULT:      -4.8      2.411      4.698
REMARK  4 active torsions:
REMARK  status: ('A' for Active; 'I' for Inactive)
REMARK    1  A    between atoms: N_1  and  C_10 
REMARK    2  A    between atoms: N_6  and  C_9 
REMARK    3  A    between atoms: C_9  and  C_11 
REMARK    4  A    between atoms: C_10  and  C_11 
ROOT
HETATM    1  N   UNL     1      62.143   7.367   2.378  1.00  0.00    -0.355 N 
HETATM    2  C   UNL     1      62.396   6.827   3.618  1.00  0.00     0.099 C 
HETATM    3  C   UNL     1      62.540   7.864   4.522  1.00  0.00    -0.034 C 
HETATM    4  C   UNL     1      62.164   8.744   2.455  1.00  0.00     0.045 A 
HETATM    5  C   UNL     1      62.298   9.076   3.803  1.00  0.00    -0.002 A 
HETATM    6  C   UNL     1      62.874   7.730   5.965  1.00  0.00     0.050 C 
HETATM    7  C   UNL     1      62.030   9.728   1.461  1.00  0.00     0.030 A 
HETATM    8  C   UNL     1      62.182  10.429   4.189  1.00  0.00     0.014 A 
HETATM    9  C   UNL     1      61.923  11.065   1.870  1.00  0.00     0.002 A 
HETATM   10  C   UNL     1      61.965  11.407   3.215  1.00  0.00     0.001 A 
ENDROOT
BRANCH   1  11
HETATM   11  C   UNL     1      61.687   6.588   1.237  1.00  0.00     0.141 C 
BRANCH  11  12
HETATM   12  C   UNL     1      60.344   5.886   1.425  1.00  0.00     0.124 C 
BRANCH  12  13
HETATM   13  C   UNL     1      59.286   6.969   1.554  1.00  0.00    -0.076 C 
BRANCH  13  14
HETATM   14  N   UNL     1      58.408   7.868   1.660  1.00  0.00    -0.370 N 
ATOM     15  HN2 UNL     1      59.100   7.122   1.593  1.00  0.00     0.165 HD
ATOM     16  HN1 UNL     1      57.698   8.595   1.746  1.00  0.00     0.165 HD
ENDBRANCH  13  14
ENDBRANCH  12  13
ENDBRANCH  11  12
ENDBRANCH   1  11
TORSDOF 4
ENDMDL
MODEL 7
REMARK VINA RESULT:      -4.7      1.915      4.207
REMARK  4 active torsions:
REMARK  status: ('A' for Active; 'I' for Inactive)
REMARK    1  A    between atoms: N_1  and  C_10 
REMARK    2  A    between atoms: N_6  and  C_9 
REMARK    3  A    between atoms: C_9  and  C_11 
REMARK    4  A    between atoms: C_10  and  C_11 
ROOT
HETATM    1  N   UNL     1      63.230   7.907   3.826  1.00  0.00    -0.355 N 
HETATM    2  C   UNL     1      62.810   7.142   2.761  1.00  0.00     0.099 C 
HETATM    3  C   UNL     1      63.844   6.298   2.399  1.00  0.00    -0.034 C 
HETATM    4  C   UNL     1      64.538   7.600   4.135  1.00  0.00     0.045 A 
HETATM    5  C   UNL     1      64.906   6.520   3.331  1.00  0.00    -0.002 A 
HETATM    6  C   UNL     1      63.837   5.339   1.262  1.00  0.00     0.050 C 
HETATM    7  C   UNL     1      65.418   8.148   5.083  1.00  0.00     0.030 A 
HETATM    8  C   UNL     1      66.150   5.892   3.556  1.00  0.00     0.014 A 
HETATM    9  C   UNL     1      66.650   7.509   5.284  1.00  0.00     0.002 A 
HETATM   10  C   UNL     1      66.996   6.379   4.555  1.00  0.00     0.001 A 
ENDROOT
BRANCH   1  11
HETATM   11  C   UNL     1      62.336   8.722   4.634  1.00  0.00     0.141 C 
BRANCH  11  12
HETATM   12  C   UNL     1      62.320  10.209   4.289  1.00  0.00     0.124 C 
BRANCH  12  13
HETATM   13  C   UNL     1      63.011  10.942   5.427  1.00  0.00    -0.076 C 
BRANCH  13  14
HETATM   14  N   UNL     1      63.584  11.550   6.371  1.00  0.00    -0.370 N 
ATOM     15  HN2 UNL     1      63.130  11.081   5.588  1.00  0.00     0.165 HD
ATOM     16  HN1 UNL     1      64.048  12.041   7.135  1.00  0.00     0.165 HD
ENDBRANCH  13  14
ENDBRANCH  12  13
ENDBRANCH  11  12
ENDBRANCH   1  11
TORSDOF 4
ENDMDL
MODEL 8
REMARK VINA RESULT:      -4.6      1.987      4.003
REMARK  4 active torsions:
REMARK  status: ('A' for Active; 'I' for Inactive)
REMARK    1  A    between atoms: N_1  and  C_10 
REMARK    2  A    between atoms: N_6  and  C_9 
REMARK    3  A    between atoms: C_9  and  C_11 
REMARK    4  A    between atoms: C_10  and  C_11 
ROOT
HETATM    1  N   UNL     1      63.083   7.771   4.614  1.00  0.00    -0.355 N 
HETATM    2  C   UNL     1      63.144   8.756   5.574  1.00  0.00     0.099 C 
HETATM    3  C   UNL     1      62.827   9.963   4.979  1.00  0.00    -0.034 C 
HETATM    4  C   UNL     1      62.772   8.328   3.392  1.00  0.00     0.045 A 
HETATM    5  C   UNL     1      62.497   9.678   3.616  1.00  0.00    -0.002 A 
HETATM    6  C   UNL     1      62.824  11.294   5.641  1.00  0.00     0.050 C 
HETATM    7  C   UNL     1      62.663   7.754   2.115  1.00  0.00     0.030 A 
HETATM    8  C   UNL     1      61.988  10.457   2.555  1.00  0.00     0.014 A 
HETATM    9  C   UNL     1      62.160   8.551   1.077  1.00  0.00     0.002 A 
HETATM   10  C   UNL     1      61.796   9.873   1.301  1.00  0.00     0.001 A 
ENDROOT
BRANCH   1  11
HETATM   11  C   UNL     1      63.105   6.348   4.918  1.00  0.00     0.141 C 
BRANCH  11  12
HETATM   12  C   UNL     1      62.191   5.912   6.060  1.00  0.00     0.124 C 
BRANCH  12  13
HETATM   13  C   UNL     1      60.765   5.961   5.537  1.00  0.00    -0.076 C 
BRANCH  13  14
HETATM   14  N   UNL     1      59.582   6.002   5.102  1.00  0.00    -0.370 N 
ATOM     15  HN2 UNL     1      60.534   5.997   5.468  1.00  0.00     0.165 HD
ATOM     16  HN1 UNL     1      58.625   6.034   4.750  1.00  0.00     0.165 HD
ENDBRANCH  13  14
ENDBRANCH  12  13
ENDBRANCH  11  12
ENDBRANCH   1  11
TORSDOF 4
ENDMDL
MODEL 9
REMARK VINA RESULT:      -4.4      2.187      4.657
REMARK  4 active torsions:
REMARK  status: ('A' for Active; 'I' for Inactive)
REMARK    1  A    between atoms: N_1  and  C_10 
REMARK    2  A    between atoms: N_6  and  C_9 
REMARK    3  A    between atoms: C_9  and  C_11 
REMARK    4  A    between atoms: C_10  and  C_11 
ROOT
HETATM    1  N   UNL     1      63.006   7.306   2.297  1.00  0.00    -0.355 N 
HETATM    2  C   UNL     1      63.403   6.149   1.665  1.00  0.00     0.099 C 
HETATM    3  C   UNL     1      64.463   5.611   2.371  1.00  0.00    -0.034 C 
HETATM    4  C   UNL     1      63.821   7.549   3.382  1.00  0.00     0.045 A 
HETATM    5  C   UNL     1      64.666   6.446   3.513  1.00  0.00    -0.002 A 
HETATM    6  C   UNL     1      65.231   4.390   2.006  1.00  0.00     0.050 C 
HETATM    7  C   UNL     1      63.860   8.622   4.288  1.00  0.00     0.030 A 
HETATM    8  C   UNL     1      65.500   6.356   4.649  1.00  0.00     0.014 A 
HETATM    9  C   UNL     1      64.701   8.509   5.405  1.00  0.00     0.002 A 
HETATM   10  C   UNL     1      65.484   7.379   5.599  1.00  0.00     0.001 A 
ENDROOT
BRANCH   1  11
HETATM   11  C   UNL     1      61.767   8.005   1.992  1.00  0.00     0.141 C 
BRANCH  11  12
HETATM   12  C   UNL     1      61.897   9.154   0.996  1.00  0.00     0.124 C 
BRANCH  12  13
HETATM   13  C   UNL     1      61.781  10.448   1.784  1.00  0.00    -0.076 C 
BRANCH  13  14
HETATM   14  N   UNL     1      61.685  11.522   2.438  1.00  0.00    -0.370 N 
ATOM     15  HN2 UNL     1      61.792  10.662   1.900  1.00  0.00     0.165 HD
ATOM     16  HN1 UNL     1      61.607  12.391   2.967  1.00  0.00     0.165 HD
ENDBRANCH  13  14
ENDBRANCH  12  13
ENDBRANCH  11  12
ENDBRANCH   1  11
TORSDOF 4
ENDMDL
