MODEL 1
REMARK VINA RESULT:      -4.6      0.000      0.000
REMARK  0 active torsions:
REMARK  status: ('A' for Active; 'I' for Inactive)
REMARK       I    between atoms: N_1  and  C_2 
ROOT
HETATM    1  N   UNL     1      62.218   9.514   3.111  1.00  0.00    -0.352 N 
HETATM    2  C   UNL     1      61.941  10.139   1.903  1.00  0.00     0.215 C 
HETATM    3  N   UNL     1      62.412   7.267   6.946  1.00  0.00    -0.197 NA
HETATM    4  C   UNL     1      63.103   7.753   6.150  1.00  0.00     0.064 C 
HETATM    5  C   UNL     1      62.410   8.066   3.140  1.00  0.00     0.127 C 
HETATM    6  C   UNL     1      62.313  10.183   4.407  1.00  0.00     0.127 C 
HETATM    7  O   UNL     1      61.855   9.523   0.840  1.00  0.00    -0.274 OA
HETATM    8  C   UNL     1      63.958   8.390   5.129  1.00  0.00     0.096 C 
HETATM    9  C   UNL     1      63.673   9.896   5.041  1.00  0.00     0.039 C 
HETATM   10  C   UNL     1      63.767   7.724   3.757  1.00  0.00     0.039 C 
HETATM   11  C   UNL     1      61.763  11.636   1.919  1.00  0.00     0.117 C 
ENDROOT
TORSDOF 0
ENDMDL
MODEL 2
REMARK VINA RESULT:      -4.4      2.204      4.399
REMARK  0 active torsions:
REMARK  status: ('A' for Active; 'I' for Inactive)
REMARK       I    between atoms: N_1  and  C_2 
ROOT
HETATM    1  N   UNL     1      62.654   8.956   3.852  1.00  0.00    -0.352 N 
HETATM    2  C   UNL     1      63.504   9.210   4.921  1.00  0.00     0.215 C 
HETATM    3  N   UNL     1      59.406   8.087   0.939  1.00  0.00    -0.197 NA
HETATM    4  C   UNL     1      60.485   8.513   0.987  1.00  0.00     0.064 C 
HETATM    5  C   UNL     1      61.715   9.990   3.425  1.00  0.00     0.127 C 
HETATM    6  C   UNL     1      62.587   7.703   3.105  1.00  0.00     0.127 C 
HETATM    7  O   UNL     1      63.506  10.282   5.528  1.00  0.00    -0.274 OA
HETATM    8  C   UNL     1      61.861   9.039   1.073  1.00  0.00     0.096 C 
HETATM    9  C   UNL     1      62.819   7.970   1.619  1.00  0.00     0.039 C 
HETATM   10  C   UNL     1      61.913  10.305   1.942  1.00  0.00     0.039 C 
HETATM   11  C   UNL     1      64.465   8.119   5.319  1.00  0.00     0.117 C 
ENDROOT
TORSDOF 0
ENDMDL
MODEL 3
REMARK VINA RESULT:      -4.3      2.097      3.346
REMARK  0 active torsions:
REMARK  status: ('A' for Active; 'I' for Inactive)
REMARK       I    between atoms: N_1  and  C_2 
ROOT
HETATM    1  N   UNL     1      62.058   9.714   3.676  1.00  0.00    -0.352 N 
HETATM    2  C   UNL     1      62.248  10.964   4.252  1.00  0.00     0.215 C 
HETATM    3  N   UNL     1      60.737   5.808   2.006  1.00  0.00    -0.197 NA
HETATM    4  C   UNL     1      61.629   6.550   1.968  1.00  0.00     0.064 C 
HETATM    5  C   UNL     1      61.414   9.621   2.368  1.00  0.00     0.127 C 
HETATM    6  C   UNL     1      62.426   8.438   4.284  1.00  0.00     0.127 C 
HETATM    7  O   UNL     1      61.902  12.009   3.700  1.00  0.00    -0.274 OA
HETATM    8  C   UNL     1      62.755   7.504   1.947  1.00  0.00     0.096 C 
HETATM    9  C   UNL     1      63.357   7.667   3.350  1.00  0.00     0.039 C 
HETATM   10  C   UNL     1      62.313   8.865   1.388  1.00  0.00     0.039 C 
HETATM   11  C   UNL     1      62.928  11.012   5.596  1.00  0.00     0.117 C 
ENDROOT
TORSDOF 0
ENDMDL
MODEL 4
REMARK VINA RESULT:      -4.3      2.587      4.217
REMARK  0 active torsions:
REMARK  status: ('A' for Active; 'I' for Inactive)
REMARK       I    between atoms: N_1  and  C_2 
ROOT
HETATM    1  N   UNL     1      63.975   8.247   4.692  1.00  0.00    -0.352 N 
HETATM    2  C   UNL     1      65.261   8.354   5.205  1.00  0.00     0.215 C 
HETATM    3  N   UNL     1      59.681   7.621   3.708  1.00  0.00    -0.197 NA
HETATM    4  C   UNL     1      60.615   8.206   3.341  1.00  0.00     0.064 C 
HETATM    5  C   UNL     1      62.942   9.171   5.155  1.00  0.00     0.127 C 
HETATM    6  C   UNL     1      63.531   7.250   3.722  1.00  0.00     0.127 C 
HETATM    7  O   UNL     1      65.577   9.206   6.036  1.00  0.00    -0.274 OA
HETATM    8  C   UNL     1      61.819   8.928   2.889  1.00  0.00     0.096 C 
HETATM    9  C   UNL     1      62.932   7.943   2.500  1.00  0.00     0.039 C 
HETATM   10  C   UNL     1      62.315   9.903   3.968  1.00  0.00     0.039 C 
HETATM   11  C   UNL     1      66.296   7.388   4.689  1.00  0.00     0.117 C 
ENDROOT
TORSDOF 0
ENDMDL
MODEL 5
REMARK VINA RESULT:      -4.1      2.228      2.965
REMARK  0 active torsions:
REMARK  status: ('A' for Active; 'I' for Inactive)
REMARK       I    between atoms: N_1  and  C_2 
ROOT
HETATM    1  N   UNL     1      62.348   9.618   3.207  1.00  0.00    -0.352 N 
HETATM    2  C   UNL     1      62.001  10.960   3.303  1.00  0.00     0.215 C 
HETATM    3  N   UNL     1      64.141   5.549   3.073  1.00  0.00    -0.197 NA
HETATM    4  C   UNL     1      63.110   6.078   3.139  1.00  0.00     0.064 C 
HETATM    5  C   UNL     1      62.613   8.859   4.426  1.00  0.00     0.127 C 
HETATM    6  C   UNL     1      62.508   8.873   1.960  1.00  0.00     0.127 C 
HETATM    7  O   UNL     1      61.897  11.543   4.382  1.00  0.00    -0.274 OA
HETATM    8  C   UNL     1      61.812   6.777   3.210  1.00  0.00     0.096 C 
HETATM    9  C   UNL     1      61.594   7.650   1.965  1.00  0.00     0.039 C 
HETATM   10  C   UNL     1      61.712   7.625   4.488  1.00  0.00     0.039 C 
HETATM   11  C   UNL     1      61.725  11.699   2.019  1.00  0.00     0.117 C 
ENDROOT
TORSDOF 0
ENDMDL
MODEL 6
REMARK VINA RESULT:      -3.8     11.878     13.066
REMARK  0 active torsions:
REMARK  status: ('A' for Active; 'I' for Inactive)
REMARK       I    between atoms: N_1  and  C_2 
ROOT
HETATM    1  N   UNL     1      56.667   1.930  12.917  1.00  0.00    -0.352 N 
HETATM    2  C   UNL     1      55.494   2.674  12.913  1.00  0.00     0.215 C 
HETATM    3  N   UNL     1      60.046  -0.937  12.521  1.00  0.00    -0.197 NA
HETATM    4  C   UNL     1      59.828   0.167  12.809  1.00  0.00     0.064 C 
HETATM    5  C   UNL     1      57.479   1.869  11.704  1.00  0.00     0.127 C 
HETATM    6  C   UNL     1      57.171   1.153  14.047  1.00  0.00     0.127 C 
HETATM    7  O   UNL     1      55.107   3.298  11.924  1.00  0.00    -0.274 OA
HETATM    8  C   UNL     1      59.522   1.561  13.182  1.00  0.00     0.096 C 
HETATM    9  C   UNL     1      58.587   1.607  14.399  1.00  0.00     0.039 C 
HETATM   10  C   UNL     1      58.908   2.326  12.000  1.00  0.00     0.039 C 
HETATM   11  C   UNL     1      54.696   2.719  14.190  1.00  0.00     0.117 C 
ENDROOT
TORSDOF 0
ENDMDL
MODEL 7
REMARK VINA RESULT:      -3.6      2.776      4.559
REMARK  0 active torsions:
REMARK  status: ('A' for Active; 'I' for Inactive)
REMARK       I    between atoms: N_1  and  C_2 
ROOT
HETATM    1  N   UNL     1      60.888   7.586   3.915  1.00  0.00    -0.352 N 
HETATM    2  C   UNL     1      60.534   6.460   4.648  1.00  0.00     0.215 C 
HETATM    3  N   UNL     1      61.822  11.570   2.170  1.00  0.00    -0.197 NA
HETATM    4  C   UNL     1      62.032  10.441   2.003  1.00  0.00     0.064 C 
HETATM    5  C   UNL     1      62.124   8.292   4.241  1.00  0.00     0.127 C 
HETATM    6  C   UNL     1      60.103   8.169   2.830  1.00  0.00     0.127 C 
HETATM    7  O   UNL     1      61.227   6.021   5.566  1.00  0.00    -0.274 OA
HETATM    8  C   UNL     1      62.272   8.998   1.805  1.00  0.00     0.096 C 
HETATM    9  C   UNL     1      60.951   8.254   1.562  1.00  0.00     0.039 C 
HETATM   10  C   UNL     1      63.018   8.394   3.005  1.00  0.00     0.039 C 
HETATM   11  C   UNL     1      59.257   5.757   4.267  1.00  0.00     0.117 C 
ENDROOT
TORSDOF 0
ENDMDL
MODEL 8
REMARK VINA RESULT:      -3.5      4.559      5.380
REMARK  0 active torsions:
REMARK  status: ('A' for Active; 'I' for Inactive)
REMARK       I    between atoms: N_1  and  C_2 
ROOT
HETATM    1  N   UNL     1      65.656   6.701   6.043  1.00  0.00    -0.352 N 
HETATM    2  C   UNL     1      66.303   7.896   5.758  1.00  0.00     0.215 C 
HETATM    3  N   UNL     1      63.779   3.002   7.654  1.00  0.00    -0.197 NA
HETATM    4  C   UNL     1      63.767   3.685   6.715  1.00  0.00     0.064 C 
HETATM    5  C   UNL     1      64.359   6.732   6.715  1.00  0.00     0.127 C 
HETATM    6  C   UNL     1      66.176   5.368   5.751  1.00  0.00     0.127 C 
HETATM    7  O   UNL     1      65.824   8.995   6.043  1.00  0.00    -0.274 OA
HETATM    8  C   UNL     1      63.780   4.562   5.528  1.00  0.00     0.096 C 
HETATM    9  C   UNL     1      65.177   4.596   4.891  1.00  0.00     0.039 C 
HETATM   10  C   UNL     1      63.315   5.982   5.887  1.00  0.00     0.039 C 
HETATM   11  C   UNL     1      67.632   7.816   5.053  1.00  0.00     0.117 C 
ENDROOT
TORSDOF 0
ENDMDL
MODEL 9
REMARK VINA RESULT:      -3.5     12.682     13.465
REMARK  0 active torsions:
REMARK  status: ('A' for Active; 'I' for Inactive)
REMARK       I    between atoms: N_1  and  C_2 
ROOT
HETATM    1  N   UNL     1      59.301   0.237  12.422  1.00  0.00    -0.352 N 
HETATM    2  C   UNL     1      60.343  -0.640  12.149  1.00  0.00     0.215 C 
HETATM    3  N   UNL     1      55.968   3.180  12.571  1.00  0.00    -0.197 NA
HETATM    4  C   UNL     1      56.456   2.337  13.203  1.00  0.00     0.064 C 
HETATM    5  C   UNL     1      57.939  -0.131  12.043  1.00  0.00     0.127 C 
HETATM    6  C   UNL     1      59.443   1.549  13.047  1.00  0.00     0.127 C 
HETATM    7  O   UNL     1      60.168  -1.730  11.603  1.00  0.00    -0.274 OA
HETATM    8  C   UNL     1      57.103   1.270  13.991  1.00  0.00     0.096 C 
HETATM    9  C   UNL     1      58.565   1.628  14.295  1.00  0.00     0.039 C 
HETATM   10  C   UNL     1      57.018  -0.081  13.263  1.00  0.00     0.039 C 
HETATM   11  C   UNL     1      61.729  -0.224  12.568  1.00  0.00     0.117 C 
ENDROOT
TORSDOF 0
ENDMDL
