MODEL 1
REMARK VINA RESULT:      -5.2      0.000      0.000
REMARK  1 active torsions:
REMARK  status: ('A' for Active; 'I' for Inactive)
REMARK    1  A    between atoms: C_3  and  C_9 
ROOT
HETATM    1  N   UNL     1      61.311  12.455   1.700  1.00  0.00    -0.191 NA
HETATM    2  C   UNL     1      61.700  11.580   2.363  1.00  0.00     0.099 C 
HETATM    3  C   UNL     1      63.258   8.445   4.768  1.00  0.00    -0.009 A 
HETATM    4  C   UNL     1      62.991   9.706   5.323  1.00  0.00     0.015 A 
HETATM    5  C   UNL     1      62.969   8.224   3.415  1.00  0.00     0.015 A 
HETATM    6  C   UNL     1      62.195  10.512   3.181  1.00  0.00     0.044 A 
HETATM    7  C   UNL     1      62.439   9.251   2.626  1.00  0.00     0.023 A 
HETATM    8  C   UNL     1      62.460  10.731   4.535  1.00  0.00     0.023 A 
ENDROOT
BRANCH   3   9
HETATM    9  C   UNL     1      63.841   7.382   5.576  1.00  0.00     0.049 A 
HETATM   10  N   UNL     1      64.790   7.644   6.552  1.00  0.00    -0.353 N 
HETATM   11  C   UNL     1      65.137   6.522   7.150  1.00  0.00     0.047 A 
ATOM     12  HN  UNL     1      65.163   8.566   6.774  1.00  0.00     0.166 HD
HETATM   13  S   UNL     1      64.363   5.102   6.568  1.00  0.00    -0.087 SA
HETATM   14  C   UNL     1      66.123   6.421   8.262  1.00  0.00     0.076 C 
HETATM   15  C   UNL     1      63.494   6.051   5.441  1.00  0.00     0.081 A 
ENDBRANCH   3   9
TORSDOF 1
ENDMDL
MODEL 2
REMARK VINA RESULT:      -5.0      1.928      2.670
REMARK  1 active torsions:
REMARK  status: ('A' for Active; 'I' for Inactive)
REMARK    1  A    between atoms: C_3  and  C_9 
ROOT
HETATM    1  N   UNL     1      61.079   9.104   1.300  1.00  0.00    -0.191 NA
HETATM    2  C   UNL     1      61.899   8.773   2.057  1.00  0.00     0.099 C 
HETATM    3  C   UNL     1      64.793   7.466   4.879  1.00  0.00    -0.009 A 
HETATM    4  C   UNL     1      64.526   6.710   3.726  1.00  0.00     0.015 A 
HETATM    5  C   UNL     1      64.116   8.678   5.067  1.00  0.00     0.015 A 
HETATM    6  C   UNL     1      62.899   8.349   2.993  1.00  0.00     0.044 A 
HETATM    7  C   UNL     1      63.174   9.118   4.129  1.00  0.00     0.023 A 
HETATM    8  C   UNL     1      63.588   7.151   2.789  1.00  0.00     0.023 A 
ENDROOT
BRANCH   3   9
HETATM    9  C   UNL     1      65.746   6.996   5.875  1.00  0.00     0.049 A 
HETATM   10  N   UNL     1      65.506   7.127   7.234  1.00  0.00    -0.353 N 
HETATM   11  C   UNL     1      66.506   6.607   7.917  1.00  0.00     0.047 A 
ATOM     12  HN  UNL     1      64.679   7.560   7.644  1.00  0.00     0.166 HD
HETATM   13  S   UNL     1      67.786   5.953   6.973  1.00  0.00    -0.087 SA
HETATM   14  C   UNL     1      66.584   6.553   9.403  1.00  0.00     0.076 C 
HETATM   15  C   UNL     1      66.943   6.387   5.549  1.00  0.00     0.081 A 
ENDBRANCH   3   9
TORSDOF 1
ENDMDL
MODEL 3
REMARK VINA RESULT:      -4.9      2.624      6.253
REMARK  1 active torsions:
REMARK  status: ('A' for Active; 'I' for Inactive)
REMARK    1  A    between atoms: C_3  and  C_9 
ROOT
HETATM    1  N   UNL     1      67.657   5.498   8.818  1.00  0.00    -0.191 NA
HETATM    2  C   UNL     1      66.960   6.029   8.051  1.00  0.00     0.099 C 
HETATM    3  C   UNL     1      64.399   8.077   5.352  1.00  0.00    -0.009 A 
HETATM    4  C   UNL     1      65.749   8.440   5.471  1.00  0.00     0.015 A 
HETATM    5  C   UNL     1      63.916   7.003   6.111  1.00  0.00     0.015 A 
HETATM    6  C   UNL     1      66.104   6.698   7.117  1.00  0.00     0.044 A 
HETATM    7  C   UNL     1      64.764   6.316   6.988  1.00  0.00     0.023 A 
HETATM    8  C   UNL     1      66.596   7.753   6.345  1.00  0.00     0.023 A 
ENDROOT
BRANCH   3   9
HETATM    9  C   UNL     1      63.504   8.809   4.466  1.00  0.00     0.049 A 
HETATM   10  N   UNL     1      63.217   8.362   3.185  1.00  0.00    -0.353 N 
HETATM   11  C   UNL     1      62.370   9.186   2.603  1.00  0.00     0.047 A 
ATOM     12  HN  UNL     1      63.602   7.520   2.758  1.00  0.00     0.166 HD
HETATM   13  S   UNL     1      61.890  10.541   3.546  1.00  0.00    -0.087 SA
HETATM   14  C   UNL     1      61.825   9.015   1.228  1.00  0.00     0.076 C 
HETATM   15  C   UNL     1      62.875   9.985   4.828  1.00  0.00     0.081 A 
ENDBRANCH   3   9
TORSDOF 1
ENDMDL
MODEL 4
REMARK VINA RESULT:      -4.9      2.482      6.082
REMARK  1 active torsions:
REMARK  status: ('A' for Active; 'I' for Inactive)
REMARK    1  A    between atoms: C_3  and  C_9 
ROOT
HETATM    1  N   UNL     1      66.296   5.423   8.597  1.00  0.00    -0.191 NA
HETATM    2  C   UNL     1      65.714   6.004   7.773  1.00  0.00     0.099 C 
HETATM    3  C   UNL     1      63.620   8.011   4.670  1.00  0.00    -0.009 A 
HETATM    4  C   UNL     1      63.005   6.979   5.396  1.00  0.00     0.015 A 
HETATM    5  C   UNL     1      64.924   8.394   5.009  1.00  0.00     0.015 A 
HETATM    6  C   UNL     1      64.997   6.703   6.748  1.00  0.00     0.044 A 
HETATM    7  C   UNL     1      65.609   7.745   6.042  1.00  0.00     0.023 A 
HETATM    8  C   UNL     1      63.688   6.332   6.429  1.00  0.00     0.023 A 
ENDROOT
BRANCH   3   9
HETATM    9  C   UNL     1      62.925   8.667   3.570  1.00  0.00     0.049 A 
HETATM   10  N   UNL     1      62.703  10.035   3.560  1.00  0.00    -0.353 N 
HETATM   11  C   UNL     1      62.078  10.379   2.452  1.00  0.00     0.047 A 
ATOM     12  HN  UNL     1      62.981  10.680   4.300  1.00  0.00     0.166 HD
HETATM   13  S   UNL     1      61.712   9.087   1.378  1.00  0.00    -0.087 SA
HETATM   14  C   UNL     1      61.690  11.770   2.090  1.00  0.00     0.076 C 
HETATM   15  C   UNL     1      62.447   7.989   2.465  1.00  0.00     0.081 A 
ENDBRANCH   3   9
TORSDOF 1
ENDMDL
MODEL 5
REMARK VINA RESULT:      -4.5      2.233      3.336
REMARK  1 active torsions:
REMARK  status: ('A' for Active; 'I' for Inactive)
REMARK    1  A    between atoms: C_3  and  C_9 
ROOT
HETATM    1  N   UNL     1      61.715  10.343   3.838  1.00  0.00    -0.191 NA
HETATM    2  C   UNL     1      62.431   9.642   4.431  1.00  0.00     0.099 C 
HETATM    3  C   UNL     1      65.077   7.015   6.466  1.00  0.00    -0.009 A 
HETATM    4  C   UNL     1      65.574   8.111   5.742  1.00  0.00     0.015 A 
HETATM    5  C   UNL     1      63.691   6.822   6.538  1.00  0.00     0.015 A 
HETATM    6  C   UNL     1      63.321   8.775   5.145  1.00  0.00     0.044 A 
HETATM    7  C   UNL     1      62.818   7.697   5.881  1.00  0.00     0.023 A 
HETATM    8  C   UNL     1      64.701   8.985   5.089  1.00  0.00     0.023 A 
ENDROOT
BRANCH   3   9
HETATM    9  C   UNL     1      65.983   6.082   7.122  1.00  0.00     0.049 A 
HETATM   10  N   UNL     1      65.990   4.731   6.812  1.00  0.00    -0.353 N 
HETATM   11  C   UNL     1      66.910   4.113   7.525  1.00  0.00     0.047 A 
ATOM     12  HN  UNL     1      65.375   4.282   6.133  1.00  0.00     0.166 HD
HETATM   13  S   UNL     1      67.798   5.108   8.609  1.00  0.00    -0.087 SA
HETATM   14  C   UNL     1      67.213   2.657   7.444  1.00  0.00     0.076 C 
HETATM   15  C   UNL     1      66.897   6.464   8.086  1.00  0.00     0.081 A 
ENDBRANCH   3   9
TORSDOF 1
ENDMDL
MODEL 6
REMARK VINA RESULT:      -4.4      2.527      6.547
REMARK  1 active torsions:
REMARK  status: ('A' for Active; 'I' for Inactive)
REMARK    1  A    between atoms: C_3  and  C_9 
ROOT
HETATM    1  N   UNL     1      67.908   3.486   8.659  1.00  0.00    -0.191 NA
HETATM    2  C   UNL     1      67.230   4.260   8.114  1.00  0.00     0.099 C 
HETATM    3  C   UNL     1      64.790   7.017   5.995  1.00  0.00    -0.009 A 
HETATM    4  C   UNL     1      64.316   5.732   6.304  1.00  0.00     0.015 A 
HETATM    5  C   UNL     1      66.069   7.389   6.430  1.00  0.00     0.015 A 
HETATM    6  C   UNL     1      66.396   5.202   7.428  1.00  0.00     0.044 A 
HETATM    7  C   UNL     1      66.868   6.488   7.143  1.00  0.00     0.023 A 
HETATM    8  C   UNL     1      65.112   4.833   7.017  1.00  0.00     0.023 A 
ENDROOT
BRANCH   3   9
HETATM    9  C   UNL     1      63.978   7.948   5.224  1.00  0.00     0.049 A 
HETATM   10  N   UNL     1      63.685   9.220   5.689  1.00  0.00    -0.353 N 
HETATM   11  C   UNL     1      62.958   9.866   4.799  1.00  0.00     0.047 A 
ATOM     12  HN  UNL     1      63.988   9.601   6.585  1.00  0.00     0.166 HD
HETATM   13  S   UNL     1      62.574   8.982   3.376  1.00  0.00    -0.087 SA
HETATM   14  C   UNL     1      62.472  11.265   4.951  1.00  0.00     0.076 C 
HETATM   15  C   UNL     1      63.448   7.643   3.984  1.00  0.00     0.081 A 
ENDBRANCH   3   9
TORSDOF 1
ENDMDL
MODEL 7
REMARK VINA RESULT:      -4.4      4.146      5.999
REMARK  1 active torsions:
REMARK  status: ('A' for Active; 'I' for Inactive)
REMARK    1  A    between atoms: C_3  and  C_9 
ROOT
HETATM    1  N   UNL     1      65.554   9.084   5.782  1.00  0.00    -0.191 NA
HETATM    2  C   UNL     1      64.518   8.826   5.316  1.00  0.00     0.099 C 
HETATM    3  C   UNL     1      60.808   7.786   3.528  1.00  0.00    -0.009 A 
HETATM    4  C   UNL     1      61.376   6.973   4.521  1.00  0.00     0.015 A 
HETATM    5  C   UNL     1      61.467   8.967   3.161  1.00  0.00     0.015 A 
HETATM    6  C   UNL     1      63.251   8.493   4.736  1.00  0.00     0.044 A 
HETATM    7  C   UNL     1      62.681   9.319   3.762  1.00  0.00     0.023 A 
HETATM    8  C   UNL     1      62.587   7.325   5.122  1.00  0.00     0.023 A 
ENDROOT
BRANCH   3   9
HETATM    9  C   UNL     1      59.563   7.407   2.875  1.00  0.00     0.049 A 
HETATM   10  N   UNL     1      58.399   7.186   3.594  1.00  0.00    -0.353 N 
HETATM   11  C   UNL     1      57.416   6.880   2.772  1.00  0.00     0.047 A 
ATOM     12  HN  UNL     1      58.316   7.251   4.609  1.00  0.00     0.166 HD
HETATM   13  S   UNL     1      57.835   6.825   1.106  1.00  0.00    -0.087 SA
HETATM   14  C   UNL     1      56.015   6.593   3.190  1.00  0.00     0.076 C 
HETATM   15  C   UNL     1      59.443   7.248   1.507  1.00  0.00     0.081 A 
ENDBRANCH   3   9
TORSDOF 1
ENDMDL
MODEL 8
REMARK VINA RESULT:      -4.2      2.396      3.034
REMARK  1 active torsions:
REMARK  status: ('A' for Active; 'I' for Inactive)
REMARK    1  A    between atoms: C_3  and  C_9 
ROOT
HETATM    1  N   UNL     1      59.246   8.393   0.572  1.00  0.00    -0.191 NA
HETATM    2  C   UNL     1      60.208   8.279   1.218  1.00  0.00     0.099 C 
HETATM    3  C   UNL     1      63.642   7.766   3.665  1.00  0.00    -0.009 A 
HETATM    4  C   UNL     1      63.305   6.808   2.696  1.00  0.00     0.015 A 
HETATM    5  C   UNL     1      62.847   8.913   3.789  1.00  0.00     0.015 A 
HETATM    6  C   UNL     1      61.384   8.122   2.021  1.00  0.00     0.044 A 
HETATM    7  C   UNL     1      61.725   9.092   2.971  1.00  0.00     0.023 A 
HETATM    8  C   UNL     1      62.185   6.987   1.879  1.00  0.00     0.023 A 
ENDROOT
BRANCH   3   9
HETATM    9  C   UNL     1      64.788   7.569   4.542  1.00  0.00     0.049 A 
HETATM   10  N   UNL     1      65.488   6.373   4.572  1.00  0.00    -0.353 N 
HETATM   11  C   UNL     1      66.487   6.461   5.426  1.00  0.00     0.047 A 
ATOM     12  HN  UNL     1      65.263   5.548   4.017  1.00  0.00     0.166 HD
HETATM   13  S   UNL     1      66.631   7.966   6.245  1.00  0.00    -0.087 SA
HETATM   14  C   UNL     1      67.464   5.372   5.709  1.00  0.00     0.076 C 
HETATM   15  C   UNL     1      65.266   8.547   5.394  1.00  0.00     0.081 A 
ENDBRANCH   3   9
TORSDOF 1
ENDMDL
MODEL 9
REMARK VINA RESULT:      -4.2      2.583      3.139
REMARK  1 active torsions:
REMARK  status: ('A' for Active; 'I' for Inactive)
REMARK    1  A    between atoms: C_3  and  C_9 
ROOT
HETATM    1  N   UNL     1      58.114   7.329   2.982  1.00  0.00    -0.191 NA
HETATM    2  C   UNL     1      59.195   7.319   3.416  1.00  0.00     0.099 C 
HETATM    3  C   UNL     1      63.090   7.379   5.110  1.00  0.00    -0.009 A 
HETATM    4  C   UNL     1      62.085   6.564   5.655  1.00  0.00     0.015 A 
HETATM    5  C   UNL     1      62.798   8.146   3.974  1.00  0.00     0.015 A 
HETATM    6  C   UNL     1      60.518   7.315   3.967  1.00  0.00     0.044 A 
HETATM    7  C   UNL     1      61.519   8.115   3.405  1.00  0.00     0.023 A 
HETATM    8  C   UNL     1      60.810   6.531   5.086  1.00  0.00     0.023 A 
ENDROOT
BRANCH   3   9
HETATM    9  C   UNL     1      64.412   7.443   5.717  1.00  0.00     0.049 A 
HETATM   10  N   UNL     1      64.667   6.903   6.968  1.00  0.00    -0.353 N 
HETATM   11  C   UNL     1      65.937   7.072   7.278  1.00  0.00     0.047 A 
ATOM     12  HN  UNL     1      63.976   6.444   7.561  1.00  0.00     0.166 HD
HETATM   13  S   UNL     1      66.882   7.895   6.102  1.00  0.00    -0.087 SA
HETATM   14  C   UNL     1      66.574   6.604   8.540  1.00  0.00     0.076 C 
HETATM   15  C   UNL     1      65.501   8.031   5.102  1.00  0.00     0.081 A 
ENDBRANCH   3   9
TORSDOF 1
ENDMDL
