MODEL 1
REMARK VINA RESULT:      -5.2      0.000      0.000
REMARK  3 active torsions:
REMARK  status: ('A' for Active; 'I' for Inactive)
REMARK    1  A    between atoms: C_1  and  C_6 
REMARK    2  A    between atoms: N_2  and  C_7 
REMARK    3  A    between atoms: C_7  and  C_8 
ROOT
HETATM    1  C   UNL     1      62.106  10.028   3.599  1.00  0.00     0.065 A 
HETATM    2  N   UNL     1      62.729   8.250   4.830  1.00  0.00    -0.349 N 
HETATM    3  C   UNL     1      62.826   9.631   4.723  1.00  0.00     0.025 A 
HETATM    4  C   UNL     1      61.580   8.839   3.021  1.00  0.00     0.045 A 
HETATM    5  C   UNL     1      61.984   7.757   3.777  1.00  0.00     0.009 A 
HETATM    6  C   UNL     1      63.598  10.450   5.708  1.00  0.00     0.069 C 
HETATM    7  C   UNL     1      61.686   6.317   3.548  1.00  0.00     0.068 C 
ENDROOT
BRANCH   2   8
HETATM    8  C   UNL     1      63.382   7.436   5.863  1.00  0.00     0.174 C 
BRANCH   8   9
HETATM    9  C   UNL     1      64.821   7.125   5.564  1.00  0.00     0.001 A 
HETATM   10  S   UNL     1      65.870   6.792   6.889  1.00  0.00    -0.105 SA
HETATM   11  C   UNL     1      67.217   6.580   5.862  1.00  0.00     0.050 A 
HETATM   12  C   UNL     1      66.884   6.733   4.536  1.00  0.00     0.008 A 
HETATM   13  C   UNL     1      65.501   7.037   4.364  1.00  0.00     0.017 A 
ENDBRANCH   8   9
ENDBRANCH   2   8
BRANCH   1  14
HETATM   14  C   UNL     1      61.926  11.383   3.097  1.00  0.00     0.211 C 
HETATM   15  O   UNL     1      61.964  11.745   1.930  1.00  0.00    -0.644 OA
HETATM   16  O   UNL     1      61.700  12.303   4.065  1.00  0.00    -0.644 OA
ENDBRANCH   1  14
TORSDOF 3
ENDMDL
MODEL 2
REMARK VINA RESULT:      -5.2      1.723      2.087
REMARK  3 active torsions:
REMARK  status: ('A' for Active; 'I' for Inactive)
REMARK    1  A    between atoms: C_1  and  C_6 
REMARK    2  A    between atoms: N_2  and  C_7 
REMARK    3  A    between atoms: C_7  and  C_8 
ROOT
HETATM    1  C   UNL     1      62.211   9.936   2.873  1.00  0.00     0.065 A 
HETATM    2  N   UNL     1      62.737   7.767   3.170  1.00  0.00    -0.349 N 
HETATM    3  C   UNL     1      62.604   8.989   3.817  1.00  0.00     0.025 A 
HETATM    4  C   UNL     1      62.123   9.247   1.631  1.00  0.00     0.045 A 
HETATM    5  C   UNL     1      62.463   7.925   1.825  1.00  0.00     0.009 A 
HETATM    6  C   UNL     1      62.863   9.142   5.281  1.00  0.00     0.069 C 
HETATM    7  C   UNL     1      62.525   6.835   0.813  1.00  0.00     0.068 C 
ENDROOT
BRANCH   2   8
HETATM    8  C   UNL     1      63.173   6.518   3.807  1.00  0.00     0.174 C 
BRANCH   8   9
HETATM    9  C   UNL     1      64.659   6.304   3.757  1.00  0.00     0.001 A 
HETATM   10  S   UNL     1      65.254   4.960   2.860  1.00  0.00    -0.105 SA
HETATM   11  C   UNL     1      66.876   5.323   3.253  1.00  0.00     0.050 A 
HETATM   12  C   UNL     1      66.977   6.455   4.029  1.00  0.00     0.008 A 
HETATM   13  C   UNL     1      65.701   7.026   4.310  1.00  0.00     0.017 A 
ENDBRANCH   8   9
ENDBRANCH   2   8
BRANCH   1  14
HETATM   14  C   UNL     1      61.949  11.350   3.096  1.00  0.00     0.211 C 
HETATM   15  O   UNL     1      61.787  11.907   4.172  1.00  0.00    -0.644 OA
HETATM   16  O   UNL     1      61.883  12.083   1.958  1.00  0.00    -0.644 OA
ENDBRANCH   1  14
TORSDOF 3
ENDMDL
MODEL 3
REMARK VINA RESULT:      -5.1      3.617      5.727
REMARK  3 active torsions:
REMARK  status: ('A' for Active; 'I' for Inactive)
REMARK    1  A    between atoms: C_1  and  C_6 
REMARK    2  A    between atoms: N_2  and  C_7 
REMARK    3  A    between atoms: C_7  and  C_8 
ROOT
HETATM    1  C   UNL     1      64.144   8.579   4.905  1.00  0.00     0.065 A 
HETATM    2  N   UNL     1      62.752   8.875   3.160  1.00  0.00    -0.349 N 
HETATM    3  C   UNL     1      63.663   7.997   3.734  1.00  0.00     0.025 A 
HETATM    4  C   UNL     1      63.502   9.845   5.014  1.00  0.00     0.045 A 
HETATM    5  C   UNL     1      62.666  10.019   3.930  1.00  0.00     0.009 A 
HETATM    6  C   UNL     1      63.991   6.679   3.111  1.00  0.00     0.069 C 
HETATM    7  C   UNL     1      61.805  11.192   3.616  1.00  0.00     0.068 C 
ENDROOT
BRANCH   2   8
HETATM    8  C   UNL     1      62.047   8.651   1.892  1.00  0.00     0.174 C 
BRANCH   8   9
HETATM    9  C   UNL     1      60.652   8.121   2.064  1.00  0.00     0.001 A 
HETATM   10  S   UNL     1      59.647   8.019   0.670  1.00  0.00    -0.105 SA
HETATM   11  C   UNL     1      58.332   7.412   1.574  1.00  0.00     0.050 A 
HETATM   12  C   UNL     1      58.647   7.261   2.905  1.00  0.00     0.008 A 
HETATM   13  C   UNL     1      59.987   7.660   3.185  1.00  0.00     0.017 A 
ENDBRANCH   8   9
ENDBRANCH   2   8
BRANCH   1  14
HETATM   14  C   UNL     1      65.115   8.021   5.835  1.00  0.00     0.211 C 
HETATM   15  O   UNL     1      64.886   7.273   6.774  1.00  0.00    -0.644 OA
HETATM   16  O   UNL     1      66.391   8.405   5.593  1.00  0.00    -0.644 OA
ENDBRANCH   1  14
TORSDOF 3
ENDMDL
MODEL 4
REMARK VINA RESULT:      -5.0      1.744      2.790
REMARK  3 active torsions:
REMARK  status: ('A' for Active; 'I' for Inactive)
REMARK    1  A    between atoms: C_1  and  C_6 
REMARK    2  A    between atoms: N_2  and  C_7 
REMARK    3  A    between atoms: C_7  and  C_8 
ROOT
HETATM    1  C   UNL     1      61.899   8.950   2.506  1.00  0.00     0.065 A 
HETATM    2  N   UNL     1      62.651   8.587   4.597  1.00  0.00    -0.349 N 
HETATM    3  C   UNL     1      62.235   7.961   3.429  1.00  0.00     0.025 A 
HETATM    4  C   UNL     1      62.114  10.195   3.161  1.00  0.00     0.045 A 
HETATM    5  C   UNL     1      62.558   9.956   4.445  1.00  0.00     0.009 A 
HETATM    6  C   UNL     1      62.197   6.473   3.298  1.00  0.00     0.069 C 
HETATM    7  C   UNL     1      62.899  10.952   5.497  1.00  0.00     0.068 C 
ENDROOT
BRANCH   2   8
HETATM    8  C   UNL     1      63.054   7.894   5.828  1.00  0.00     0.174 C 
BRANCH   8   9
HETATM    9  C   UNL     1      64.514   7.540   5.868  1.00  0.00     0.001 A 
HETATM   10  S   UNL     1      64.982   6.133   6.742  1.00  0.00    -0.105 SA
HETATM   11  C   UNL     1      66.635   6.377   6.391  1.00  0.00     0.050 A 
HETATM   12  C   UNL     1      66.836   7.489   5.605  1.00  0.00     0.008 A 
HETATM   13  C   UNL     1      65.613   8.153   5.295  1.00  0.00     0.017 A 
ENDBRANCH   8   9
ENDBRANCH   2   8
BRANCH   1  14
HETATM   14  C   UNL     1      61.415   8.763   1.147  1.00  0.00     0.211 C 
HETATM   15  O   UNL     1      60.267   8.525   0.802  1.00  0.00    -0.644 OA
HETATM   16  O   UNL     1      62.379   8.870   0.200  1.00  0.00    -0.644 OA
ENDBRANCH   1  14
TORSDOF 3
ENDMDL
MODEL 5
REMARK VINA RESULT:      -4.9      3.182      5.241
REMARK  3 active torsions:
REMARK  status: ('A' for Active; 'I' for Inactive)
REMARK    1  A    between atoms: C_1  and  C_6 
REMARK    2  A    between atoms: N_2  and  C_7 
REMARK    3  A    between atoms: C_7  and  C_8 
ROOT
HETATM    1  C   UNL     1      62.807   9.169   4.465  1.00  0.00     0.065 A 
HETATM    2  N   UNL     1      61.408   7.658   3.554  1.00  0.00    -0.349 N 
HETATM    3  C   UNL     1      62.180   7.942   4.674  1.00  0.00     0.025 A 
HETATM    4  C   UNL     1      62.399   9.610   3.175  1.00  0.00     0.045 A 
HETATM    5  C   UNL     1      61.556   8.668   2.624  1.00  0.00     0.009 A 
HETATM    6  C   UNL     1      62.247   7.017   5.845  1.00  0.00     0.069 C 
HETATM    7  C   UNL     1      60.896   8.696   1.290  1.00  0.00     0.068 C 
ENDROOT
BRANCH   2   8
HETATM    8  C   UNL     1      60.618   6.435   3.363  1.00  0.00     0.174 C 
BRANCH   8   9
HETATM    9  C   UNL     1      59.239   6.511   3.955  1.00  0.00     0.001 A 
HETATM   10  S   UNL     1      58.737   5.242   5.005  1.00  0.00    -0.105 SA
HETATM   11  C   UNL     1      57.198   5.944   5.236  1.00  0.00     0.050 A 
HETATM   12  C   UNL     1      57.066   7.132   4.554  1.00  0.00     0.008 A 
HETATM   13  C   UNL     1      58.245   7.464   3.824  1.00  0.00     0.017 A 
ENDBRANCH   8   9
ENDBRANCH   2   8
BRANCH   1  14
HETATM   14  C   UNL     1      63.710   9.866   5.369  1.00  0.00     0.211 C 
HETATM   15  O   UNL     1      64.854   9.545   5.657  1.00  0.00    -0.644 OA
HETATM   16  O   UNL     1      63.176  10.979   5.928  1.00  0.00    -0.644 OA
ENDBRANCH   1  14
TORSDOF 3
ENDMDL
MODEL 6
REMARK VINA RESULT:      -4.9      2.732      4.389
REMARK  3 active torsions:
REMARK  status: ('A' for Active; 'I' for Inactive)
REMARK    1  A    between atoms: C_1  and  C_6 
REMARK    2  A    between atoms: N_2  and  C_7 
REMARK    3  A    between atoms: C_7  and  C_8 
ROOT
HETATM    1  C   UNL     1      62.271   9.731   3.906  1.00  0.00     0.065 A 
HETATM    2  N   UNL     1      62.079   7.556   4.455  1.00  0.00    -0.349 N 
HETATM    3  C   UNL     1      61.533   8.570   3.678  1.00  0.00     0.025 A 
HETATM    4  C   UNL     1      63.273   9.386   4.856  1.00  0.00     0.045 A 
HETATM    5  C   UNL     1      63.132   8.056   5.194  1.00  0.00     0.009 A 
HETATM    6  C   UNL     1      60.356   8.340   2.787  1.00  0.00     0.069 C 
HETATM    7  C   UNL     1      63.946   7.264   6.157  1.00  0.00     0.068 C 
ENDROOT
BRANCH   2   8
HETATM    8  C   UNL     1      61.564   6.182   4.530  1.00  0.00     0.174 C 
BRANCH   8   9
HETATM    9  C   UNL     1      60.544   5.981   5.614  1.00  0.00     0.001 A 
HETATM   10  S   UNL     1      58.899   5.772   5.150  1.00  0.00    -0.105 SA
HETATM   11  C   UNL     1      58.382   5.641   6.772  1.00  0.00     0.050 A 
HETATM   12  C   UNL     1      59.433   5.727   7.656  1.00  0.00     0.008 A 
HETATM   13  C   UNL     1      60.680   5.913   6.989  1.00  0.00     0.017 A 
ENDBRANCH   8   9
ENDBRANCH   2   8
BRANCH   1  14
HETATM   14  C   UNL     1      62.064  11.041   3.307  1.00  0.00     0.211 C 
HETATM   15  O   UNL     1      62.005  11.303   2.115  1.00  0.00    -0.644 OA
HETATM   16  O   UNL     1      61.931  12.043   4.210  1.00  0.00    -0.644 OA
ENDBRANCH   1  14
TORSDOF 3
ENDMDL
MODEL 7
REMARK VINA RESULT:      -4.9      3.646      5.529
REMARK  3 active torsions:
REMARK  status: ('A' for Active; 'I' for Inactive)
REMARK    1  A    between atoms: C_1  and  C_6 
REMARK    2  A    between atoms: N_2  and  C_7 
REMARK    3  A    between atoms: C_7  and  C_8 
ROOT
HETATM    1  C   UNL     1      64.182   7.946   4.465  1.00  0.00     0.065 A 
HETATM    2  N   UNL     1      62.848   8.137   2.663  1.00  0.00    -0.349 N 
HETATM    3  C   UNL     1      63.208   8.739   3.862  1.00  0.00     0.025 A 
HETATM    4  C   UNL     1      64.390   6.838   3.597  1.00  0.00     0.045 A 
HETATM    5  C   UNL     1      63.554   6.961   2.506  1.00  0.00     0.009 A 
HETATM    6  C   UNL     1      62.591  10.019   4.323  1.00  0.00     0.069 C 
HETATM    7  C   UNL     1      63.415   6.035   1.349  1.00  0.00     0.068 C 
ENDROOT
BRANCH   2   8
HETATM    8  C   UNL     1      61.819   8.640   1.743  1.00  0.00     0.174 C 
BRANCH   8   9
HETATM    9  C   UNL     1      60.451   8.078   2.004  1.00  0.00     0.001 A 
HETATM   10  S   UNL     1      59.374   7.913   0.671  1.00  0.00    -0.105 SA
HETATM   11  C   UNL     1      58.128   7.294   1.660  1.00  0.00     0.050 A 
HETATM   12  C   UNL     1      58.520   7.186   2.975  1.00  0.00     0.008 A 
HETATM   13  C   UNL     1      59.861   7.628   3.172  1.00  0.00     0.017 A 
ENDBRANCH   8   9
ENDBRANCH   2   8
BRANCH   1  14
HETATM   14  C   UNL     1      64.855   8.185   5.734  1.00  0.00     0.211 C 
HETATM   15  O   UNL     1      65.705   9.032   5.967  1.00  0.00    -0.644 OA
HETATM   16  O   UNL     1      64.465   7.351   6.729  1.00  0.00    -0.644 OA
ENDBRANCH   1  14
TORSDOF 3
ENDMDL
MODEL 8
REMARK VINA RESULT:      -4.7      2.025      3.099
REMARK  3 active torsions:
REMARK  status: ('A' for Active; 'I' for Inactive)
REMARK    1  A    between atoms: C_1  and  C_6 
REMARK    2  A    between atoms: N_2  and  C_7 
REMARK    3  A    between atoms: C_7  and  C_8 
ROOT
HETATM    1  C   UNL     1      62.675   9.965   4.189  1.00  0.00     0.065 A 
HETATM    2  N   UNL     1      63.217   8.040   3.156  1.00  0.00    -0.349 N 
HETATM    3  C   UNL     1      63.513   8.853   4.242  1.00  0.00     0.025 A 
HETATM    4  C   UNL     1      61.870   9.803   3.027  1.00  0.00     0.045 A 
HETATM    5  C   UNL     1      62.224   8.629   2.396  1.00  0.00     0.009 A 
HETATM    6  C   UNL     1      64.571   8.494   5.235  1.00  0.00     0.069 C 
HETATM    7  C   UNL     1      61.663   8.056   1.142  1.00  0.00     0.068 C 
ENDROOT
BRANCH   2   8
HETATM    8  C   UNL     1      63.906   6.786   2.828  1.00  0.00     0.174 C 
BRANCH   8   9
HETATM    9  C   UNL     1      63.372   5.594   3.571  1.00  0.00     0.001 A 
HETATM   10  S   UNL     1      64.505   4.474   4.225  1.00  0.00    -0.105 SA
HETATM   11  C   UNL     1      63.267   3.471   4.840  1.00  0.00     0.050 A 
HETATM   12  C   UNL     1      62.015   3.981   4.581  1.00  0.00     0.008 A 
HETATM   13  C   UNL     1      62.076   5.209   3.859  1.00  0.00     0.017 A 
ENDBRANCH   8   9
ENDBRANCH   2   8
BRANCH   1  14
HETATM   14  C   UNL     1      62.628  11.081   5.123  1.00  0.00     0.211 C 
HETATM   15  O   UNL     1      63.124  11.127   6.239  1.00  0.00    -0.644 OA
HETATM   16  O   UNL     1      61.946  12.157   4.659  1.00  0.00    -0.644 OA
ENDBRANCH   1  14
TORSDOF 3
ENDMDL
MODEL 9
REMARK VINA RESULT:      -4.7      2.158      3.036
REMARK  3 active torsions:
REMARK  status: ('A' for Active; 'I' for Inactive)
REMARK    1  A    between atoms: C_1  and  C_6 
REMARK    2  A    between atoms: N_2  and  C_7 
REMARK    3  A    between atoms: C_7  and  C_8 
ROOT
HETATM    1  C   UNL     1      62.133   9.944   3.748  1.00  0.00     0.065 A 
HETATM    2  N   UNL     1      62.053   7.697   3.875  1.00  0.00    -0.349 N 
HETATM    3  C   UNL     1      61.700   8.791   3.095  1.00  0.00     0.025 A 
HETATM    4  C   UNL     1      62.747   9.510   4.956  1.00  0.00     0.045 A 
HETATM    5  C   UNL     1      62.676   8.135   5.027  1.00  0.00     0.009 A 
HETATM    6  C   UNL     1      60.983   8.637   1.793  1.00  0.00     0.069 C 
HETATM    7  C   UNL     1      63.175   7.246   6.113  1.00  0.00     0.068 C 
ENDROOT
BRANCH   2   8
HETATM    8  C   UNL     1      61.742   6.298   3.556  1.00  0.00     0.174 C 
BRANCH   8   9
HETATM    9  C   UNL     1      62.901   5.543   2.970  1.00  0.00     0.001 A 
HETATM   10  S   UNL     1      63.367   4.065   3.720  1.00  0.00    -0.105 SA
HETATM   11  C   UNL     1      64.648   3.825   2.618  1.00  0.00     0.050 A 
HETATM   12  C   UNL     1      64.715   4.829   1.679  1.00  0.00     0.008 A 
HETATM   13  C   UNL     1      63.702   5.813   1.876  1.00  0.00     0.017 A 
ENDBRANCH   8   9
ENDBRANCH   2   8
BRANCH   1  14
HETATM   14  C   UNL     1      61.984  11.321   3.301  1.00  0.00     0.211 C 
HETATM   15  O   UNL     1      62.025  11.729   2.150  1.00  0.00    -0.644 OA
HETATM   16  O   UNL     1      61.784  12.206   4.308  1.00  0.00    -0.644 OA
ENDBRANCH   1  14
TORSDOF 3
ENDMDL
