MODEL 1
REMARK VINA RESULT:      -4.5      0.000      0.000
REMARK  2 active torsions:
REMARK  status: ('A' for Active; 'I' for Inactive)
REMARK    1  A    between atoms: C_1  and  C_5 
REMARK    2  A    between atoms: C_5  and  O_8 
ROOT
HETATM    1  C   UNL     1      63.224   9.040   4.182  1.00  0.00     0.063 A 
HETATM    2  C   UNL     1      62.481  10.218   4.159  1.00  0.00     0.021 A 
HETATM    3  N   UNL     1      61.678  10.189   3.042  1.00  0.00    -0.363 N 
HETATM    4  C   UNL     1      62.824   8.300   3.024  1.00  0.00     0.044 A 
HETATM    5  C   UNL     1      61.873   9.028   2.344  1.00  0.00     0.006 A 
HETATM    6  C   UNL     1      62.424  11.396   5.069  1.00  0.00     0.069 C 
HETATM    7  C   UNL     1      61.131   8.726   1.097  1.00  0.00     0.068 C 
HETATM    8  H   UNL     1      61.050  10.903   2.782  1.00  0.00     0.165 HD
ENDROOT
BRANCH   1   9
HETATM    9  C   UNL     1      64.213   8.622   5.176  1.00  0.00     0.294 C 
HETATM   10  O   UNL     1      65.417   8.844   5.091  1.00  0.00    -0.259 OA
BRANCH   9  11
HETATM   11  O   UNL     1      63.635   7.950   6.219  1.00  0.00    -0.322 OA
HETATM   12  C   UNL     1      64.250   6.704   6.541  1.00  0.00     0.213 C 
ENDBRANCH   9  11
ENDBRANCH   1   9
TORSDOF 2
ENDMDL
MODEL 2
REMARK VINA RESULT:      -4.2      1.605      2.460
REMARK  2 active torsions:
REMARK  status: ('A' for Active; 'I' for Inactive)
REMARK    1  A    between atoms: C_1  and  C_5 
REMARK    2  A    between atoms: C_5  and  O_8 
ROOT
HETATM    1  C   UNL     1      62.401   8.550   4.643  1.00  0.00     0.063 A 
HETATM    2  C   UNL     1      61.312   8.132   3.880  1.00  0.00     0.021 A 
HETATM    3  N   UNL     1      61.014   9.135   2.985  1.00  0.00    -0.363 N 
HETATM    4  C   UNL     1      62.743   9.853   4.159  1.00  0.00     0.044 A 
HETATM    5  C   UNL     1      61.878  10.185   3.141  1.00  0.00     0.006 A 
HETATM    6  C   UNL     1      60.495   6.887   3.880  1.00  0.00     0.069 C 
HETATM    7  C   UNL     1      61.794  11.404   2.301  1.00  0.00     0.068 C 
HETATM    8  H   UNL     1      60.284   9.101   2.325  1.00  0.00     0.165 HD
ENDROOT
BRANCH   1   9
HETATM    9  C   UNL     1      63.073   7.823   5.720  1.00  0.00     0.294 C 
HETATM   10  O   UNL     1      62.690   7.803   6.886  1.00  0.00    -0.259 OA
BRANCH   9  11
HETATM   11  O   UNL     1      64.186   7.164   5.272  1.00  0.00    -0.322 OA
HETATM   12  C   UNL     1      65.380   7.446   6.000  1.00  0.00     0.213 C 
ENDBRANCH   9  11
ENDBRANCH   1   9
TORSDOF 2
ENDMDL
MODEL 3
REMARK VINA RESULT:      -4.1      1.962      3.108
REMARK  2 active torsions:
REMARK  status: ('A' for Active; 'I' for Inactive)
REMARK    1  A    between atoms: C_1  and  C_5 
REMARK    2  A    between atoms: C_5  and  O_8 
ROOT
HETATM    1  C   UNL     1      64.535   8.256   5.009  1.00  0.00     0.063 A 
HETATM    2  C   UNL     1      64.186   7.534   3.870  1.00  0.00     0.021 A 
HETATM    3  N   UNL     1      63.166   8.208   3.239  1.00  0.00    -0.363 N 
HETATM    4  C   UNL     1      63.675   9.399   5.029  1.00  0.00     0.044 A 
HETATM    5  C   UNL     1      62.846   9.345   3.930  1.00  0.00     0.006 A 
HETATM    6  C   UNL     1      64.696   6.264   3.282  1.00  0.00     0.069 C 
HETATM    7  C   UNL     1      61.783  10.271   3.473  1.00  0.00     0.068 C 
HETATM    8  H   UNL     1      62.727   7.913   2.407  1.00  0.00     0.165 HD
ENDROOT
BRANCH   1   9
HETATM    9  C   UNL     1      65.567   7.933   5.995  1.00  0.00     0.294 C 
HETATM   10  O   UNL     1      65.369   7.283   7.016  1.00  0.00    -0.259 OA
BRANCH   9  11
HETATM   11  O   UNL     1      66.786   8.445   5.642  1.00  0.00    -0.322 OA
HETATM   12  C   UNL     1      67.735   7.475   5.199  1.00  0.00     0.213 C 
ENDBRANCH   9  11
ENDBRANCH   1   9
TORSDOF 2
ENDMDL
MODEL 4
REMARK VINA RESULT:      -4.0      3.368      5.765
REMARK  2 active torsions:
REMARK  status: ('A' for Active; 'I' for Inactive)
REMARK    1  A    between atoms: C_1  and  C_5 
REMARK    2  A    between atoms: C_5  and  O_8 
ROOT
HETATM    1  C   UNL     1      65.843   7.645   6.011  1.00  0.00     0.063 A 
HETATM    2  C   UNL     1      67.213   7.566   5.770  1.00  0.00     0.021 A 
HETATM    3  N   UNL     1      67.788   6.886   6.819  1.00  0.00    -0.363 N 
HETATM    4  C   UNL     1      65.624   6.976   7.257  1.00  0.00     0.044 A 
HETATM    5  C   UNL     1      66.835   6.519   7.729  1.00  0.00     0.006 A 
HETATM    6  C   UNL     1      68.074   8.056   4.657  1.00  0.00     0.069 C 
HETATM    7  C   UNL     1      67.171   5.765   8.960  1.00  0.00     0.068 C 
HETATM    8  H   UNL     1      68.750   6.692   6.903  1.00  0.00     0.165 HD
ENDROOT
BRANCH   1   9
HETATM    9  C   UNL     1      64.820   8.275   5.176  1.00  0.00     0.294 C 
HETATM   10  O   UNL     1      64.288   7.738   4.209  1.00  0.00    -0.259 OA
BRANCH   9  11
HETATM   11  O   UNL     1      64.523   9.540   5.603  1.00  0.00    -0.322 OA
HETATM   12  C   UNL     1      63.225  10.006   5.234  1.00  0.00     0.213 C 
ENDBRANCH   9  11
ENDBRANCH   1   9
TORSDOF 2
ENDMDL
MODEL 5
REMARK VINA RESULT:      -3.9      1.622      2.423
REMARK  2 active torsions:
REMARK  status: ('A' for Active; 'I' for Inactive)
REMARK    1  A    between atoms: C_1  and  C_5 
REMARK    2  A    between atoms: C_5  and  O_8 
ROOT
HETATM    1  C   UNL     1      63.415   8.392   3.942  1.00  0.00     0.063 A 
HETATM    2  C   UNL     1      63.779   7.290   3.172  1.00  0.00     0.021 A 
HETATM    3  N   UNL     1      63.061   7.340   1.999  1.00  0.00    -0.363 N 
HETATM    4  C   UNL     1      62.445   9.108   3.172  1.00  0.00     0.044 A 
HETATM    5  C   UNL     1      62.248   8.441   1.983  1.00  0.00     0.006 A 
HETATM    6  C   UNL     1      64.734   6.170   3.396  1.00  0.00     0.069 C 
HETATM    7  C   UNL     1      61.364   8.750   0.834  1.00  0.00     0.068 C 
HETATM    8  H   UNL     1      63.123   6.677   1.273  1.00  0.00     0.165 HD
ENDROOT
BRANCH   1   9
HETATM    9  C   UNL     1      63.912   8.763   5.268  1.00  0.00     0.294 C 
HETATM   10  O   UNL     1      65.048   9.167   5.494  1.00  0.00    -0.259 OA
BRANCH   9  11
HETATM   11  O   UNL     1      62.954   8.606   6.233  1.00  0.00    -0.322 OA
HETATM   12  C   UNL     1      62.528   7.260   6.437  1.00  0.00     0.213 C 
ENDBRANCH   9  11
ENDBRANCH   1   9
TORSDOF 2
ENDMDL
MODEL 6
REMARK VINA RESULT:      -3.8      2.592      4.615
REMARK  2 active torsions:
REMARK  status: ('A' for Active; 'I' for Inactive)
REMARK    1  A    between atoms: C_1  and  C_5 
REMARK    2  A    between atoms: C_5  and  O_8 
ROOT
HETATM    1  C   UNL     1      63.823   8.271   4.961  1.00  0.00     0.063 A 
HETATM    2  C   UNL     1      63.350   7.404   5.943  1.00  0.00     0.021 A 
HETATM    3  N   UNL     1      64.421   7.015   6.715  1.00  0.00    -0.363 N 
HETATM    4  C   UNL     1      65.232   8.386   5.183  1.00  0.00     0.044 A 
HETATM    5  C   UNL     1      65.571   7.607   6.267  1.00  0.00     0.006 A 
HETATM    6  C   UNL     1      61.993   6.879   6.260  1.00  0.00     0.069 C 
HETATM    7  C   UNL     1      66.881   7.372   6.919  1.00  0.00     0.068 C 
HETATM    8  H   UNL     1      64.367   6.399   7.482  1.00  0.00     0.165 HD
ENDROOT
BRANCH   1   9
HETATM    9  C   UNL     1      63.057   8.940   3.909  1.00  0.00     0.294 C 
HETATM   10  O   UNL     1      62.963   8.533   2.755  1.00  0.00    -0.259 OA
BRANCH   9  11
HETATM   11  O   UNL     1      62.453  10.080   4.366  1.00  0.00    -0.322 OA
HETATM   12  C   UNL     1      61.926  10.926   3.345  1.00  0.00     0.213 C 
ENDBRANCH   9  11
ENDBRANCH   1   9
TORSDOF 2
ENDMDL
MODEL 7
REMARK VINA RESULT:      -3.8      2.373      4.078
REMARK  2 active torsions:
REMARK  status: ('A' for Active; 'I' for Inactive)
REMARK    1  A    between atoms: C_1  and  C_5 
REMARK    2  A    between atoms: C_5  and  O_8 
ROOT
HETATM    1  C   UNL     1      62.795   8.565   4.091  1.00  0.00     0.063 A 
HETATM    2  C   UNL     1      63.105   9.733   4.783  1.00  0.00     0.021 A 
HETATM    3  N   UNL     1      64.251   9.502   5.510  1.00  0.00    -0.363 N 
HETATM    4  C   UNL     1      63.814   7.621   4.437  1.00  0.00     0.044 A 
HETATM    5  C   UNL     1      64.695   8.224   5.307  1.00  0.00     0.006 A 
HETATM    6  C   UNL     1      62.453  11.070   4.854  1.00  0.00     0.069 C 
HETATM    7  C   UNL     1      65.918   7.702   5.962  1.00  0.00     0.068 C 
HETATM    8  H   UNL     1      64.690  10.164   6.094  1.00  0.00     0.165 HD
ENDROOT
BRANCH   1   9
HETATM    9  C   UNL     1      61.667   8.328   3.190  1.00  0.00     0.294 C 
HETATM   10  O   UNL     1      60.495   8.270   3.548  1.00  0.00    -0.259 OA
BRANCH   9  11
HETATM   11  O   UNL     1      62.076   8.179   1.892  1.00  0.00    -0.322 OA
HETATM   12  C   UNL     1      62.098   9.385   1.131  1.00  0.00     0.213 C 
ENDBRANCH   9  11
ENDBRANCH   1   9
TORSDOF 2
ENDMDL
MODEL 8
REMARK VINA RESULT:      -3.7      4.233      6.308
REMARK  2 active torsions:
REMARK  status: ('A' for Active; 'I' for Inactive)
REMARK    1  A    between atoms: C_1  and  C_5 
REMARK    2  A    between atoms: C_5  and  O_8 
ROOT
HETATM    1  C   UNL     1      66.409   6.264   6.713  1.00  0.00     0.063 A 
HETATM    2  C   UNL     1      67.183   5.815   7.780  1.00  0.00     0.021 A 
HETATM    3  N   UNL     1      67.786   4.638   7.400  1.00  0.00    -0.363 N 
HETATM    4  C   UNL     1      66.579   5.299   5.670  1.00  0.00     0.044 A 
HETATM    5  C   UNL     1      67.431   4.313   6.118  1.00  0.00     0.006 A 
HETATM    6  C   UNL     1      67.438   6.358   9.144  1.00  0.00     0.069 C 
HETATM    7  C   UNL     1      67.940   3.095   5.445  1.00  0.00     0.068 C 
HETATM    8  H   UNL     1      68.388   4.105   7.968  1.00  0.00     0.165 HD
ENDROOT
BRANCH   1   9
HETATM    9  C   UNL     1      65.586   7.472   6.647  1.00  0.00     0.294 C 
HETATM   10  O   UNL     1      65.977   8.554   6.222  1.00  0.00    -0.259 OA
BRANCH   9  11
HETATM   11  O   UNL     1      64.320   7.251   7.119  1.00  0.00    -0.322 OA
HETATM   12  C   UNL     1      63.301   7.259   6.120  1.00  0.00     0.213 C 
ENDBRANCH   9  11
ENDBRANCH   1   9
TORSDOF 2
ENDMDL
MODEL 9
REMARK VINA RESULT:      -3.7      1.573      1.963
REMARK  2 active torsions:
REMARK  status: ('A' for Active; 'I' for Inactive)
REMARK    1  A    between atoms: C_1  and  C_5 
REMARK    2  A    between atoms: C_5  and  O_8 
ROOT
HETATM    1  C   UNL     1      62.023   8.079   4.525  1.00  0.00     0.063 A 
HETATM    2  C   UNL     1      61.694   9.322   3.991  1.00  0.00     0.021 A 
HETATM    3  N   UNL     1      60.729   9.127   3.029  1.00  0.00    -0.363 N 
HETATM    4  C   UNL     1      61.205   7.126   3.838  1.00  0.00     0.044 A 
HETATM    5  C   UNL     1      60.420   7.797   2.927  1.00  0.00     0.006 A 
HETATM    6  C   UNL     1      62.176  10.703   4.270  1.00  0.00     0.069 C 
HETATM    7  C   UNL     1      59.403   7.297   1.971  1.00  0.00     0.068 C 
HETATM    8  H   UNL     1      60.319   9.842   2.490  1.00  0.00     0.165 HD
ENDROOT
BRANCH   1   9
HETATM    9  C   UNL     1      62.998   7.783   5.575  1.00  0.00     0.294 C 
HETATM   10  O   UNL     1      62.737   7.753   6.774  1.00  0.00    -0.259 OA
BRANCH   9  11
HETATM   11  O   UNL     1      64.243   7.542   5.060  1.00  0.00    -0.322 OA
HETATM   12  C   UNL     1      65.239   8.491   5.437  1.00  0.00     0.213 C 
ENDBRANCH   9  11
ENDBRANCH   1   9
TORSDOF 2
ENDMDL
