MODEL 1
REMARK VINA RESULT:      -3.9      0.000      0.000
REMARK  2 active torsions:
REMARK  status: ('A' for Active; 'I' for Inactive)
REMARK    1  A    between atoms: C_1  and  C_7 
REMARK    2  A    between atoms: N_6  and  C_7 
ROOT
HETATM    1  C   UNL     1      62.366  10.320   4.019  1.00  0.00     0.013 A 
HETATM    2  C   UNL     1      62.030  10.513   2.682  1.00  0.00    -0.047 A 
HETATM    3  S   UNL     1      62.675   8.664   4.365  1.00  0.00    -0.104 SA
HETATM    4  C   UNL     1      62.365   8.196   2.756  1.00  0.00     0.051 A 
HETATM    5  C   UNL     1      62.033   9.269   1.964  1.00  0.00     0.015 A 
HETATM    6  C   UNL     1      61.710  11.818   2.031  1.00  0.00     0.049 C 
ENDROOT
BRANCH   1   7
HETATM    7  C   UNL     1      62.472  11.322   5.133  1.00  0.00     0.276 C 
BRANCH   7   8
HETATM    8  N   UNL     1      63.655  11.071   5.951  1.00  0.00    -0.075 N 
HETATM    9  H   UNL     1      64.326  10.519   5.418  1.00  0.00     0.274 HD
HETATM   10  H   UNL     1      63.385  10.561   6.792  1.00  0.00     0.274 HD
HETATM   11  H   UNL     1      64.080  11.960   6.215  1.00  0.00     0.274 HD
ENDBRANCH   7   8
ENDBRANCH   1   7
TORSDOF 2
ENDMDL
MODEL 2
REMARK VINA RESULT:      -3.5      2.377      3.213
REMARK  2 active torsions:
REMARK  status: ('A' for Active; 'I' for Inactive)
REMARK    1  A    between atoms: C_1  and  C_7 
REMARK    2  A    between atoms: N_6  and  C_7 
ROOT
HETATM    1  C   UNL     1      61.933   9.399   2.619  1.00  0.00     0.013 A 
HETATM    2  C   UNL     1      61.985  10.750   2.950  1.00  0.00    -0.047 A 
HETATM    3  S   UNL     1      62.360   8.401   3.954  1.00  0.00    -0.104 SA
HETATM    4  C   UNL     1      62.615   9.745   4.969  1.00  0.00     0.051 A 
HETATM    5  C   UNL     1      62.384  10.933   4.317  1.00  0.00     0.015 A 
HETATM    6  C   UNL     1      61.669  11.894   2.044  1.00  0.00     0.049 C 
ENDROOT
BRANCH   1   7
HETATM    7  C   UNL     1      61.585   8.746   1.313  1.00  0.00     0.276 C 
BRANCH   7   8
HETATM    8  N   UNL     1      60.138   8.670   1.136  1.00  0.00    -0.075 N 
HETATM    9  H   UNL     1      59.694   8.481   2.035  1.00  0.00     0.274 HD
HETATM   10  H   UNL     1      59.914   7.921   0.481  1.00  0.00     0.274 HD
HETATM   11  H   UNL     1      59.793   9.557   0.767  1.00  0.00     0.274 HD
ENDBRANCH   7   8
ENDBRANCH   1   7
TORSDOF 2
ENDMDL
MODEL 3
REMARK VINA RESULT:      -3.4      1.495      1.833
REMARK  2 active torsions:
REMARK  status: ('A' for Active; 'I' for Inactive)
REMARK    1  A    between atoms: C_1  and  C_7 
REMARK    2  A    between atoms: N_6  and  C_7 
ROOT
HETATM    1  C   UNL     1      62.594   9.083   3.684  1.00  0.00     0.013 A 
HETATM    2  C   UNL     1      62.140  10.324   3.245  1.00  0.00    -0.047 A 
HETATM    3  S   UNL     1      62.682   7.947   2.397  1.00  0.00    -0.104 SA
HETATM    4  C   UNL     1      62.121   9.083   1.259  1.00  0.00     0.051 A 
HETATM    5  C   UNL     1      61.869  10.306   1.835  1.00  0.00     0.015 A 
HETATM    6  C   UNL     1      61.951  11.544   4.085  1.00  0.00     0.049 C 
ENDROOT
BRANCH   1   7
HETATM    7  C   UNL     1      62.979   8.640   5.066  1.00  0.00     0.276 C 
BRANCH   7   8
HETATM    8  N   UNL     1      64.302   9.144   5.427  1.00  0.00    -0.075 N 
HETATM    9  H   UNL     1      64.604   8.711   6.300  1.00  0.00     0.274 HD
HETATM   10  H   UNL     1      64.260  10.156   5.545  1.00  0.00     0.274 HD
HETATM   11  H   UNL     1      64.966   8.915   4.687  1.00  0.00     0.274 HD
ENDBRANCH   7   8
ENDBRANCH   1   7
TORSDOF 2
ENDMDL
MODEL 4
REMARK VINA RESULT:      -3.4      1.545      2.507
REMARK  2 active torsions:
REMARK  status: ('A' for Active; 'I' for Inactive)
REMARK    1  A    between atoms: C_1  and  C_7 
REMARK    2  A    between atoms: N_6  and  C_7 
ROOT
HETATM    1  C   UNL     1      62.491   9.446   3.797  1.00  0.00     0.013 A 
HETATM    2  C   UNL     1      62.423   8.948   2.499  1.00  0.00    -0.047 A 
HETATM    3  S   UNL     1      62.037  11.104   3.865  1.00  0.00    -0.104 SA
HETATM    4  C   UNL     1      61.753  11.170   2.187  1.00  0.00     0.051 A 
HETATM    5  C   UNL     1      61.995   9.961   1.577  1.00  0.00     0.015 A 
HETATM    6  C   UNL     1      62.736   7.551   2.072  1.00  0.00     0.049 C 
ENDROOT
BRANCH   1   7
HETATM    7  C   UNL     1      62.901   8.757   5.067  1.00  0.00     0.276 C 
BRANCH   7   8
HETATM    8  N   UNL     1      64.219   9.208   5.504  1.00  0.00    -0.075 N 
HETATM    9  H   UNL     1      64.454   8.762   6.391  1.00  0.00     0.274 HD
HETATM   10  H   UNL     1      64.209  10.221   5.625  1.00  0.00     0.274 HD
HETATM   11  H   UNL     1      64.915   8.956   4.802  1.00  0.00     0.274 HD
ENDBRANCH   7   8
ENDBRANCH   1   7
TORSDOF 2
ENDMDL
MODEL 5
REMARK VINA RESULT:      -3.3      1.240      1.741
REMARK  2 active torsions:
REMARK  status: ('A' for Active; 'I' for Inactive)
REMARK    1  A    between atoms: C_1  and  C_7 
REMARK    2  A    between atoms: N_6  and  C_7 
ROOT
HETATM    1  C   UNL     1      62.522   9.577   3.617  1.00  0.00     0.013 A 
HETATM    2  C   UNL     1      62.506   8.822   2.447  1.00  0.00    -0.047 A 
HETATM    3  S   UNL     1      63.262   8.723   4.913  1.00  0.00    -0.104 SA
HETATM    4  C   UNL     1      63.562   7.358   3.939  1.00  0.00     0.051 A 
HETATM    5  C   UNL     1      63.112   7.537   2.652  1.00  0.00     0.015 A 
HETATM    6  C   UNL     1      61.953   9.250   1.128  1.00  0.00     0.049 C 
ENDROOT
BRANCH   1   7
HETATM    7  C   UNL     1      61.990  10.957   3.872  1.00  0.00     0.276 C 
BRANCH   7   8
HETATM    8  N   UNL     1      62.568  11.524   5.087  1.00  0.00    -0.075 N 
HETATM    9  H   UNL     1      62.386  12.528   5.114  1.00  0.00     0.274 HD
HETATM   10  H   UNL     1      63.575  11.360   5.094  1.00  0.00     0.274 HD
HETATM   11  H   UNL     1      62.146  11.081   5.904  1.00  0.00     0.274 HD
ENDBRANCH   7   8
ENDBRANCH   1   7
TORSDOF 2
ENDMDL
MODEL 6
REMARK VINA RESULT:      -3.2      2.239      2.956
REMARK  2 active torsions:
REMARK  status: ('A' for Active; 'I' for Inactive)
REMARK    1  A    between atoms: C_1  and  C_7 
REMARK    2  A    between atoms: N_6  and  C_7 
ROOT
HETATM    1  C   UNL     1      62.378   9.390   3.055  1.00  0.00     0.013 A 
HETATM    2  C   UNL     1      63.290   8.585   3.731  1.00  0.00    -0.047 A 
HETATM    3  S   UNL     1      61.786   8.625   1.633  1.00  0.00    -0.104 SA
HETATM    4  C   UNL     1      62.730   7.233   1.902  1.00  0.00     0.051 A 
HETATM    5  C   UNL     1      63.484   7.337   3.047  1.00  0.00     0.015 A 
HETATM    6  C   UNL     1      63.994   8.923   5.004  1.00  0.00     0.049 C 
ENDROOT
BRANCH   1   7
HETATM    7  C   UNL     1      61.888  10.770   3.390  1.00  0.00     0.276 C 
BRANCH   7   8
HETATM    8  N   UNL     1      61.635  11.543   2.178  1.00  0.00    -0.075 N 
HETATM    9  H   UNL     1      61.281  10.925   1.447  1.00  0.00     0.274 HD
HETATM   10  H   UNL     1      62.503  11.979   1.865  1.00  0.00     0.274 HD
HETATM   11  H   UNL     1      60.944  12.267   2.374  1.00  0.00     0.274 HD
ENDBRANCH   7   8
ENDBRANCH   1   7
TORSDOF 2
ENDMDL
MODEL 7
REMARK VINA RESULT:      -3.2      2.138      3.114
REMARK  2 active torsions:
REMARK  status: ('A' for Active; 'I' for Inactive)
REMARK    1  A    between atoms: C_1  and  C_7 
REMARK    2  A    between atoms: N_6  and  C_7 
ROOT
HETATM    1  C   UNL     1      62.943   8.703   3.424  1.00  0.00     0.013 A 
HETATM    2  C   UNL     1      62.249   9.532   2.548  1.00  0.00    -0.047 A 
HETATM    3  S   UNL     1      63.147   9.437   4.966  1.00  0.00    -0.104 SA
HETATM    4  C   UNL     1      62.324  10.848   4.483  1.00  0.00     0.051 A 
HETATM    5  C   UNL     1      61.898  10.773   3.177  1.00  0.00     0.015 A 
HETATM    6  C   UNL     1      61.884   9.215   1.134  1.00  0.00     0.049 C 
ENDROOT
BRANCH   1   7
HETATM    7  C   UNL     1      63.514   7.333   3.196  1.00  0.00     0.276 C 
BRANCH   7   8
HETATM    8  N   UNL     1      62.535   6.298   3.518  1.00  0.00    -0.075 N 
HETATM    9  H   UNL     1      61.918   6.153   2.718  1.00  0.00     0.274 HD
HETATM   10  H   UNL     1      61.983   6.591   4.324  1.00  0.00     0.274 HD
HETATM   11  H   UNL     1      63.019   5.427   3.736  1.00  0.00     0.274 HD
ENDBRANCH   7   8
ENDBRANCH   1   7
TORSDOF 2
ENDMDL
MODEL 8
REMARK VINA RESULT:      -3.0     13.033     13.707
REMARK  2 active torsions:
REMARK  status: ('A' for Active; 'I' for Inactive)
REMARK    1  A    between atoms: C_1  and  C_7 
REMARK    2  A    between atoms: N_6  and  C_7 
ROOT
HETATM    1  C   UNL     1      56.496   1.953  12.976  1.00  0.00     0.013 A 
HETATM    2  C   UNL     1      57.876   1.972  13.153  1.00  0.00    -0.047 A 
HETATM    3  S   UNL     1      56.057   2.352  11.362  1.00  0.00    -0.104 SA
HETATM    4  C   UNL     1      57.683   2.551  10.893  1.00  0.00     0.051 A 
HETATM    5  C   UNL     1      58.550   2.322  11.935  1.00  0.00     0.015 A 
HETATM    6  C   UNL     1      58.608   1.666  14.419  1.00  0.00     0.049 C 
ENDROOT
BRANCH   1   7
HETATM    7  C   UNL     1      55.408   1.659  13.968  1.00  0.00     0.276 C 
BRANCH   7   8
HETATM    8  N   UNL     1      55.084   2.845  14.756  1.00  0.00    -0.075 N 
HETATM    9  H   UNL     1      55.895   3.462  14.791  1.00  0.00     0.274 HD
HETATM   10  H   UNL     1      54.828   2.565  15.703  1.00  0.00     0.274 HD
HETATM   11  H   UNL     1      54.301   3.338  14.324  1.00  0.00     0.274 HD
ENDBRANCH   7   8
ENDBRANCH   1   7
TORSDOF 2
ENDMDL
MODEL 9
REMARK VINA RESULT:      -2.9      2.501      3.308
REMARK  2 active torsions:
REMARK  status: ('A' for Active; 'I' for Inactive)
REMARK    1  A    between atoms: C_1  and  C_7 
REMARK    2  A    between atoms: N_6  and  C_7 
ROOT
HETATM    1  C   UNL     1      62.692   8.541   3.806  1.00  0.00     0.013 A 
HETATM    2  C   UNL     1      63.459   9.219   4.749  1.00  0.00    -0.047 A 
HETATM    3  S   UNL     1      63.484   7.121   3.245  1.00  0.00    -0.104 SA
HETATM    4  C   UNL     1      64.838   7.396   4.241  1.00  0.00     0.051 A 
HETATM    5  C   UNL     1      64.702   8.541   4.989  1.00  0.00     0.015 A 
HETATM    6  C   UNL     1      63.080  10.480   5.454  1.00  0.00     0.049 C 
ENDROOT
BRANCH   1   7
HETATM    7  C   UNL     1      61.344   8.887   3.241  1.00  0.00     0.276 C 
BRANCH   7   8
HETATM    8  N   UNL     1      61.454   9.931   2.227  1.00  0.00    -0.075 N 
HETATM    9  H   UNL     1      62.299   9.781   1.674  1.00  0.00     0.274 HD
HETATM   10  H   UNL     1      61.503  10.843   2.682  1.00  0.00     0.274 HD
HETATM   11  H   UNL     1      60.638   9.899   1.615  1.00  0.00     0.274 HD
ENDBRANCH   7   8
ENDBRANCH   1   7
TORSDOF 2
ENDMDL
