MODEL 1
REMARK VINA RESULT:      -4.3      0.000      0.000
REMARK  2 active torsions:
REMARK  status: ('A' for Active; 'I' for Inactive)
REMARK    1  A    between atoms: C_2  and  C_7 
REMARK    2  A    between atoms: C_7  and  N_8 
ROOT
HETATM    1  N   UNL     1      62.614   9.184   3.049  1.00  0.00    -0.357 N 
HETATM    2  C   UNL     1      62.488  10.183   3.999  1.00  0.00     0.036 A 
HETATM    3  C   UNL     1      62.147   9.639   1.831  1.00  0.00     0.007 A 
HETATM    4  C   UNL     1      61.730  10.945   2.011  1.00  0.00     0.027 A 
HETATM    5  C   UNL     1      61.943  11.283   3.363  1.00  0.00     0.029 A 
HETATM    6  C   UNL     1      63.156   7.866   3.311  1.00  0.00     0.156 C 
HETATM    7  C   UNL     1      62.127   8.816   0.594  1.00  0.00     0.068 C 
ENDROOT
BRANCH   2   8
HETATM    8  C   UNL     1      62.907  10.036   5.421  1.00  0.00     0.286 C 
BRANCH   8   9
HETATM    9  N   UNL     1      63.330  11.318   5.960  1.00  0.00    -0.074 N 
HETATM   10  H   UNL     1      64.296  11.502   5.684  1.00  0.00     0.274 HD
HETATM   11  H   UNL     1      63.266  11.299   6.977  1.00  0.00     0.274 HD
HETATM   12  H   UNL     1      62.727  12.055   5.595  1.00  0.00     0.274 HD
ENDBRANCH   8   9
ENDBRANCH   2   8
TORSDOF 2
ENDMDL
MODEL 2
REMARK VINA RESULT:      -3.8      1.512      2.222
REMARK  2 active torsions:
REMARK  status: ('A' for Active; 'I' for Inactive)
REMARK    1  A    between atoms: C_2  and  C_7 
REMARK    2  A    between atoms: C_7  and  N_8 
ROOT
HETATM    1  N   UNL     1      62.635   9.521   3.525  1.00  0.00    -0.357 N 
HETATM    2  C   UNL     1      63.051   9.354   4.835  1.00  0.00     0.036 A 
HETATM    3  C   UNL     1      62.159  10.806   3.350  1.00  0.00     0.007 A 
HETATM    4  C   UNL     1      62.285  11.461   4.560  1.00  0.00     0.027 A 
HETATM    5  C   UNL     1      62.842  10.556   5.486  1.00  0.00     0.029 A 
HETATM    6  C   UNL     1      62.696   8.493   2.506  1.00  0.00     0.156 C 
HETATM    7  C   UNL     1      61.622  11.320   2.063  1.00  0.00     0.068 C 
ENDROOT
BRANCH   2   8
HETATM    8  C   UNL     1      63.632   8.089   5.367  1.00  0.00     0.286 C 
BRANCH   8   9
HETATM    9  N   UNL     1      64.955   8.333   5.921  1.00  0.00    -0.074 N 
HETATM   10  H   UNL     1      64.871   8.901   6.764  1.00  0.00     0.274 HD
HETATM   11  H   UNL     1      65.526   8.825   5.235  1.00  0.00     0.274 HD
HETATM   12  H   UNL     1      65.394   7.442   6.153  1.00  0.00     0.274 HD
ENDBRANCH   8   9
ENDBRANCH   2   8
TORSDOF 2
ENDMDL
MODEL 3
REMARK VINA RESULT:      -3.5      1.404      3.998
REMARK  2 active torsions:
REMARK  status: ('A' for Active; 'I' for Inactive)
REMARK    1  A    between atoms: C_2  and  C_7 
REMARK    2  A    between atoms: C_7  and  N_8 
ROOT
HETATM    1  N   UNL     1      62.158  10.325   3.229  1.00  0.00    -0.357 N 
HETATM    2  C   UNL     1      62.089   9.119   2.552  1.00  0.00     0.036 A 
HETATM    3  C   UNL     1      62.634  10.111   4.508  1.00  0.00     0.007 A 
HETATM    4  C   UNL     1      62.878   8.757   4.638  1.00  0.00     0.027 A 
HETATM    5  C   UNL     1      62.539   8.139   3.418  1.00  0.00     0.029 A 
HETATM    6  C   UNL     1      61.783  11.606   2.666  1.00  0.00     0.156 C 
HETATM    7  C   UNL     1      62.823  11.193   5.511  1.00  0.00     0.068 C 
ENDROOT
BRANCH   2   8
HETATM    8  C   UNL     1      61.629   8.983   1.141  1.00  0.00     0.286 C 
BRANCH   8   9
HETATM    9  N   UNL     1      60.212   8.659   1.099  1.00  0.00    -0.074 N 
HETATM   10  H   UNL     1      60.034   8.011   0.331  1.00  0.00     0.274 HD
HETATM   11  H   UNL     1      59.671   9.511   0.958  1.00  0.00     0.274 HD
HETATM   12  H   UNL     1      59.937   8.223   1.980  1.00  0.00     0.274 HD
ENDBRANCH   8   9
ENDBRANCH   2   8
TORSDOF 2
ENDMDL
MODEL 4
REMARK VINA RESULT:      -3.5      1.691      2.792
REMARK  2 active torsions:
REMARK  status: ('A' for Active; 'I' for Inactive)
REMARK    1  A    between atoms: C_2  and  C_7 
REMARK    2  A    between atoms: C_7  and  N_8 
ROOT
HETATM    1  N   UNL     1      62.750   8.682   3.922  1.00  0.00    -0.357 N 
HETATM    2  C   UNL     1      63.379   9.455   4.882  1.00  0.00     0.036 A 
HETATM    3  C   UNL     1      63.509   7.558   3.661  1.00  0.00     0.007 A 
HETATM    4  C   UNL     1      64.627   7.617   4.472  1.00  0.00     0.027 A 
HETATM    5  C   UNL     1      64.545   8.799   5.234  1.00  0.00     0.029 A 
HETATM    6  C   UNL     1      61.486   9.016   3.298  1.00  0.00     0.156 C 
HETATM    7  C   UNL     1      63.130   6.516   2.670  1.00  0.00     0.068 C 
ENDROOT
BRANCH   2   8
HETATM    8  C   UNL     1      62.829  10.735   5.411  1.00  0.00     0.286 C 
BRANCH   8   9
HETATM    9  N   UNL     1      63.828  11.423   6.213  1.00  0.00    -0.074 N 
HETATM   10  H   UNL     1      63.692  12.431   6.133  1.00  0.00     0.274 HD
HETATM   11  H   UNL     1      64.760  11.178   5.881  1.00  0.00     0.274 HD
HETATM   12  H   UNL     1      63.730  11.144   7.189  1.00  0.00     0.274 HD
ENDBRANCH   8   9
ENDBRANCH   2   8
TORSDOF 2
ENDMDL
MODEL 5
REMARK VINA RESULT:      -3.4      1.549      3.450
REMARK  2 active torsions:
REMARK  status: ('A' for Active; 'I' for Inactive)
REMARK    1  A    between atoms: C_2  and  C_7 
REMARK    2  A    between atoms: C_7  and  N_8 
ROOT
HETATM    1  N   UNL     1      62.884   8.603   3.161  1.00  0.00    -0.357 N 
HETATM    2  C   UNL     1      62.037   9.456   2.475  1.00  0.00     0.036 A 
HETATM    3  C   UNL     1      63.235   9.172   4.370  1.00  0.00     0.007 A 
HETATM    4  C   UNL     1      62.594  10.393   4.453  1.00  0.00     0.027 A 
HETATM    5  C   UNL     1      61.846  10.570   3.271  1.00  0.00     0.029 A 
HETATM    6  C   UNL     1      63.326   7.314   2.670  1.00  0.00     0.156 C 
HETATM    7  C   UNL     1      64.144   8.527   5.353  1.00  0.00     0.068 C 
ENDROOT
BRANCH   2   8
HETATM    8  C   UNL     1      61.454   9.151   1.137  1.00  0.00     0.286 C 
BRANCH   8   9
HETATM    9  N   UNL     1      60.088   8.675   1.276  1.00  0.00    -0.074 N 
HETATM   10  H   UNL     1      59.942   8.330   2.225  1.00  0.00     0.274 HD
HETATM   11  H   UNL     1      59.920   7.921   0.611  1.00  0.00     0.274 HD
HETATM   12  H   UNL     1      59.441   9.442   1.092  1.00  0.00     0.274 HD
ENDBRANCH   8   9
ENDBRANCH   2   8
TORSDOF 2
ENDMDL
MODEL 6
REMARK VINA RESULT:      -3.2      6.109      7.825
REMARK  2 active torsions:
REMARK  status: ('A' for Active; 'I' for Inactive)
REMARK    1  A    between atoms: C_2  and  C_7 
REMARK    2  A    between atoms: C_7  and  N_8 
ROOT
HETATM    1  N   UNL     1      67.226   6.035   7.869  1.00  0.00    -0.357 N 
HETATM    2  C   UNL     1      67.120   6.713   6.667  1.00  0.00     0.036 A 
HETATM    3  C   UNL     1      67.630   4.735   7.634  1.00  0.00     0.007 A 
HETATM    4  C   UNL     1      67.790   4.593   6.269  1.00  0.00     0.027 A 
HETATM    5  C   UNL     1      67.473   5.827   5.666  1.00  0.00     0.029 A 
HETATM    6  C   UNL     1      66.951   6.617   9.167  1.00  0.00     0.156 C 
HETATM    7  C   UNL     1      67.832   3.727   8.708  1.00  0.00     0.068 C 
ENDROOT
BRANCH   2   8
HETATM    8  C   UNL     1      66.719   8.144   6.552  1.00  0.00     0.286 C 
BRANCH   8   9
HETATM    9  N   UNL     1      65.331   8.249   6.131  1.00  0.00    -0.074 N 
HETATM   10  H   UNL     1      64.918   9.093   6.530  1.00  0.00     0.274 HD
HETATM   11  H   UNL     1      64.814   7.432   6.455  1.00  0.00     0.274 HD
HETATM   12  H   UNL     1      65.288   8.298   5.113  1.00  0.00     0.274 HD
ENDBRANCH   8   9
ENDBRANCH   2   8
TORSDOF 2
ENDMDL
MODEL 7
REMARK VINA RESULT:      -3.2      6.097      7.652
REMARK  2 active torsions:
REMARK  status: ('A' for Active; 'I' for Inactive)
REMARK    1  A    between atoms: C_2  and  C_7 
REMARK    2  A    between atoms: C_7  and  N_8 
ROOT
HETATM    1  N   UNL     1      67.349   5.739   6.641  1.00  0.00    -0.357 N 
HETATM    2  C   UNL     1      66.977   6.935   7.229  1.00  0.00     0.036 A 
HETATM    3  C   UNL     1      67.615   4.803   7.622  1.00  0.00     0.007 A 
HETATM    4  C   UNL     1      67.400   5.413   8.843  1.00  0.00     0.027 A 
HETATM    5  C   UNL     1      67.001   6.743   8.598  1.00  0.00     0.029 A 
HETATM    6  C   UNL     1      67.440   5.519   5.212  1.00  0.00     0.156 C 
HETATM    7  C   UNL     1      68.053   3.411   7.339  1.00  0.00     0.068 C 
ENDROOT
BRANCH   2   8
HETATM    8  C   UNL     1      66.607   8.159   6.462  1.00  0.00     0.286 C 
BRANCH   8   9
HETATM    9  N   UNL     1      65.174   8.189   6.216  1.00  0.00    -0.074 N 
HETATM   10  H   UNL     1      64.716   8.745   6.940  1.00  0.00     0.274 HD
HETATM   11  H   UNL     1      64.805   7.239   6.234  1.00  0.00     0.274 HD
HETATM   12  H   UNL     1      64.995   8.607   5.304  1.00  0.00     0.274 HD
ENDBRANCH   8   9
ENDBRANCH   2   8
TORSDOF 2
ENDMDL
MODEL 8
REMARK VINA RESULT:      -3.1     13.435     14.496
REMARK  2 active torsions:
REMARK  status: ('A' for Active; 'I' for Inactive)
REMARK    1  A    between atoms: C_2  and  C_7 
REMARK    2  A    between atoms: C_7  and  N_8 
ROOT
HETATM    1  N   UNL     1      56.990   1.327  12.637  1.00  0.00    -0.357 N 
HETATM    2  C   UNL     1      57.044   0.629  13.831  1.00  0.00     0.036 A 
HETATM    3  C   UNL     1      58.167   2.026  12.454  1.00  0.00     0.007 A 
HETATM    4  C   UNL     1      58.978   1.760  13.541  1.00  0.00     0.027 A 
HETATM    5  C   UNL     1      58.278   0.888  14.399  1.00  0.00     0.029 A 
HETATM    6  C   UNL     1      55.861   1.313  11.728  1.00  0.00     0.156 C 
HETATM    7  C   UNL     1      58.440   2.891  11.276  1.00  0.00     0.068 C 
ENDROOT
BRANCH   2   8
HETATM    8  C   UNL     1      55.946  -0.243  14.336  1.00  0.00     0.286 C 
BRANCH   8   9
HETATM    9  N   UNL     1      55.036   0.521  15.173  1.00  0.00    -0.074 N 
HETATM   10  H   UNL     1      54.282  -0.085  15.499  1.00  0.00     0.274 HD
HETATM   11  H   UNL     1      54.643   1.292  14.635  1.00  0.00     0.274 HD
HETATM   12  H   UNL     1      55.544   0.892  15.976  1.00  0.00     0.274 HD
ENDBRANCH   8   9
ENDBRANCH   2   8
TORSDOF 2
ENDMDL
MODEL 9
REMARK VINA RESULT:      -3.0      6.967      8.351
REMARK  2 active torsions:
REMARK  status: ('A' for Active; 'I' for Inactive)
REMARK    1  A    between atoms: C_2  and  C_7 
REMARK    2  A    between atoms: C_7  and  N_8 
ROOT
HETATM    1  N   UNL     1      67.288   5.617   6.962  1.00  0.00    -0.357 N 
HETATM    2  C   UNL     1      67.592   4.867   8.085  1.00  0.00     0.036 A 
HETATM    3  C   UNL     1      66.930   6.896   7.342  1.00  0.00     0.007 A 
HETATM    4  C   UNL     1      67.018   6.958   8.720  1.00  0.00     0.027 A 
HETATM    5  C   UNL     1      67.431   5.692   9.183  1.00  0.00     0.029 A 
HETATM    6  C   UNL     1      67.342   5.120   5.603  1.00  0.00     0.156 C 
HETATM    7  C   UNL     1      66.531   7.962   6.384  1.00  0.00     0.068 C 
ENDROOT
BRANCH   2   8
HETATM    8  C   UNL     1      68.030   3.443   8.040  1.00  0.00     0.286 C 
BRANCH   8   9
HETATM    9  N   UNL     1      67.447   2.699   9.144  1.00  0.00    -0.074 N 
HETATM   10  H   UNL     1      68.095   1.968   9.442  1.00  0.00     0.274 HD
HETATM   11  H   UNL     1      66.571   2.273   8.844  1.00  0.00     0.274 HD
HETATM   12  H   UNL     1      67.269   3.332   9.924  1.00  0.00     0.274 HD
ENDBRANCH   8   9
ENDBRANCH   2   8
TORSDOF 2
ENDMDL
