MODEL 1
REMARK VINA RESULT:      -5.2      0.000      0.000
REMARK  3 active torsions:
REMARK  status: ('A' for Active; 'I' for Inactive)
REMARK    1  A    between atoms: C_1  and  C_3 
REMARK    2  A    between atoms: C_9  and  O_10 
REMARK    3  A    between atoms: O_10  and  C_11 
ROOT
HETATM    1  N   UNL     1      66.866   8.038   5.290  1.00  0.00    -0.195 NA
HETATM    2  C   UNL     1      65.729   7.838   5.413  1.00  0.00     0.085 C 
HETATM    3  C   UNL     1      64.293   7.538   5.544  1.00  0.00     0.299 C 
ENDROOT
BRANCH   3   4
HETATM    4  O   UNL     1      63.561   8.732   5.849  1.00  0.00    -0.338 OA
BRANCH   4   5
HETATM    5  C   UNL     1      62.959   9.346   4.784  1.00  0.00     0.070 A 
HETATM    6  C   UNL     1      62.669   8.732   3.565  1.00  0.00     0.052 A 
HETATM    7  C   UNL     1      62.055   9.456   2.526  1.00  0.00     0.050 A 
HETATM    8  C   UNL     1      61.744  10.809   2.728  1.00  0.00     0.016 A 
HETATM    9  C   UNL     1      62.059  11.431   3.936  1.00  0.00     0.004 A 
HETATM   10  C   UNL     1      62.672  10.703   4.954  1.00  0.00     0.037 A 
BRANCH   7  11
HETATM   11  C   UNL     1      61.731   8.790   1.211  1.00  0.00     0.417 C 
HETATM   12  F   UNL     1      62.570   9.157   0.200  1.00  0.00    -0.166 F 
HETATM   13  F   UNL     1      60.474   9.075   0.773  1.00  0.00    -0.166 F 
HETATM   14  F   UNL     1      61.808   7.433   1.281  1.00  0.00    -0.166 F 
ENDBRANCH   7  11
ENDBRANCH   4   5
ENDBRANCH   3   4
TORSDOF 3
ENDMDL
MODEL 2
REMARK VINA RESULT:      -5.1      2.391      3.339
REMARK  3 active torsions:
REMARK  status: ('A' for Active; 'I' for Inactive)
REMARK    1  A    between atoms: C_1  and  C_3 
REMARK    2  A    between atoms: C_9  and  O_10 
REMARK    3  A    between atoms: O_10  and  C_11 
ROOT
HETATM    1  N   UNL     1      66.245   6.263   8.865  1.00  0.00    -0.195 NA
HETATM    2  C   UNL     1      66.492   6.794   7.863  1.00  0.00     0.085 C 
HETATM    3  C   UNL     1      66.851   7.442   6.589  1.00  0.00     0.299 C 
ENDROOT
BRANCH   3   4
HETATM    4  O   UNL     1      65.992   8.562   6.341  1.00  0.00    -0.338 OA
BRANCH   4   5
HETATM    5  C   UNL     1      65.085   8.401   5.330  1.00  0.00     0.070 A 
HETATM    6  C   UNL     1      64.050   9.290   5.034  1.00  0.00     0.052 A 
HETATM    7  C   UNL     1      63.161   9.028   3.975  1.00  0.00     0.050 A 
HETATM    8  C   UNL     1      63.321   7.853   3.224  1.00  0.00     0.016 A 
HETATM    9  C   UNL     1      64.337   6.950   3.538  1.00  0.00     0.004 A 
HETATM   10  C   UNL     1      65.207   7.220   4.592  1.00  0.00     0.037 A 
BRANCH   7  11
HETATM   11  C   UNL     1      62.049   9.994   3.646  1.00  0.00     0.417 C 
HETATM   12  F   UNL     1      62.071  11.122   4.414  1.00  0.00    -0.166 F 
HETATM   13  F   UNL     1      60.813   9.451   3.818  1.00  0.00    -0.166 F 
HETATM   14  F   UNL     1      62.097  10.424   2.356  1.00  0.00    -0.166 F 
ENDBRANCH   7  11
ENDBRANCH   4   5
ENDBRANCH   3   4
TORSDOF 3
ENDMDL
MODEL 3
REMARK VINA RESULT:      -4.9      1.392      1.392
REMARK  3 active torsions:
REMARK  status: ('A' for Active; 'I' for Inactive)
REMARK    1  A    between atoms: C_1  and  C_3 
REMARK    2  A    between atoms: C_9  and  O_10 
REMARK    3  A    between atoms: O_10  and  C_11 
ROOT
HETATM    1  N   UNL     1      64.433   4.889   5.718  1.00  0.00    -0.195 NA
HETATM    2  C   UNL     1      63.931   5.899   5.994  1.00  0.00     0.085 C 
HETATM    3  C   UNL     1      63.250   7.154   6.358  1.00  0.00     0.299 C 
ENDROOT
BRANCH   3   4
HETATM    4  O   UNL     1      63.953   8.277   5.812  1.00  0.00    -0.338 OA
BRANCH   4   5
HETATM    5  C   UNL     1      63.277   8.995   4.862  1.00  0.00     0.070 A 
HETATM    6  C   UNL     1      62.969   8.536   3.580  1.00  0.00     0.052 A 
HETATM    7  C   UNL     1      62.277   9.358   2.672  1.00  0.00     0.050 A 
HETATM    8  C   UNL     1      61.908  10.652   3.068  1.00  0.00     0.016 A 
HETATM    9  C   UNL     1      62.240  11.122   4.338  1.00  0.00     0.004 A 
HETATM   10  C   UNL     1      62.930  10.299   5.226  1.00  0.00     0.037 A 
BRANCH   7  11
HETATM   11  C   UNL     1      61.934   8.858   1.290  1.00  0.00     0.417 C 
HETATM   12  F   UNL     1      62.683   9.435   0.307  1.00  0.00    -0.166 F 
HETATM   13  F   UNL     1      60.636   9.093   0.954  1.00  0.00    -0.166 F 
HETATM   14  F   UNL     1      62.121   7.517   1.159  1.00  0.00    -0.166 F 
ENDBRANCH   7  11
ENDBRANCH   4   5
ENDBRANCH   3   4
TORSDOF 3
ENDMDL
MODEL 4
REMARK VINA RESULT:      -4.8      4.247      5.833
REMARK  3 active torsions:
REMARK  status: ('A' for Active; 'I' for Inactive)
REMARK    1  A    between atoms: C_1  and  C_3 
REMARK    2  A    between atoms: C_9  and  O_10 
REMARK    3  A    between atoms: O_10  and  C_11 
ROOT
HETATM    1  N   UNL     1      62.003  11.873   4.099  1.00  0.00    -0.195 NA
HETATM    2  C   UNL     1      61.929  10.742   3.848  1.00  0.00     0.085 C 
HETATM    3  C   UNL     1      61.785   9.306   3.547  1.00  0.00     0.299 C 
ENDROOT
BRANCH   3   4
HETATM    4  O   UNL     1      63.072   8.710   3.344  1.00  0.00    -0.338 OA
BRANCH   4   5
HETATM    5  C   UNL     1      63.616   8.085   4.433  1.00  0.00     0.070 A 
HETATM    6  C   UNL     1      64.904   8.306   4.922  1.00  0.00     0.052 A 
HETATM    7  C   UNL     1      65.374   7.604   6.048  1.00  0.00     0.050 A 
HETATM    8  C   UNL     1      64.532   6.668   6.668  1.00  0.00     0.016 A 
HETATM    9  C   UNL     1      63.256   6.425   6.162  1.00  0.00     0.004 A 
HETATM   10  C   UNL     1      62.805   7.125   5.045  1.00  0.00     0.037 A 
BRANCH   7  11
HETATM   11  C   UNL     1      66.762   7.850   6.584  1.00  0.00     0.417 C 
HETATM   12  F   UNL     1      67.735   7.739   5.635  1.00  0.00    -0.166 F 
HETATM   13  F   UNL     1      67.106   6.980   7.573  1.00  0.00    -0.166 F 
HETATM   14  F   UNL     1      66.903   9.097   7.112  1.00  0.00    -0.166 F 
ENDBRANCH   7  11
ENDBRANCH   4   5
ENDBRANCH   3   4
TORSDOF 3
ENDMDL
MODEL 5
REMARK VINA RESULT:      -4.8      3.754      5.017
REMARK  3 active torsions:
REMARK  status: ('A' for Active; 'I' for Inactive)
REMARK    1  A    between atoms: C_1  and  C_3 
REMARK    2  A    between atoms: C_9  and  O_10 
REMARK    3  A    between atoms: O_10  and  C_11 
ROOT
HETATM    1  N   UNL     1      58.527   7.964   1.100  1.00  0.00    -0.195 NA
HETATM    2  C   UNL     1      59.672   8.064   0.940  1.00  0.00     0.085 C 
HETATM    3  C   UNL     1      61.129   8.138   0.736  1.00  0.00     0.299 C 
ENDROOT
BRANCH   3   4
HETATM    4  O   UNL     1      61.605   9.460   1.019  1.00  0.00    -0.338 OA
BRANCH   4   5
HETATM    5  C   UNL     1      62.046   9.672   2.297  1.00  0.00     0.070 A 
HETATM    6  C   UNL     1      62.752   8.743   3.064  1.00  0.00     0.052 A 
HETATM    7  C   UNL     1      63.154   9.055   4.376  1.00  0.00     0.050 A 
HETATM    8  C   UNL     1      62.827  10.311   4.909  1.00  0.00     0.016 A 
HETATM    9  C   UNL     1      62.097  11.228   4.154  1.00  0.00     0.004 A 
HETATM   10  C   UNL     1      61.701  10.904   2.858  1.00  0.00     0.037 A 
BRANCH   7  11
HETATM   11  C   UNL     1      63.928   8.057   5.201  1.00  0.00     0.417 C 
HETATM   12  F   UNL     1      63.260   7.650   6.319  1.00  0.00    -0.166 F 
HETATM   13  F   UNL     1      65.120   8.547   5.638  1.00  0.00    -0.166 F 
HETATM   14  F   UNL     1      64.217   6.921   4.510  1.00  0.00    -0.166 F 
ENDBRANCH   7  11
ENDBRANCH   4   5
ENDBRANCH   3   4
TORSDOF 3
ENDMDL
MODEL 6
REMARK VINA RESULT:      -4.7      1.302      2.007
REMARK  3 active torsions:
REMARK  status: ('A' for Active; 'I' for Inactive)
REMARK    1  A    between atoms: C_1  and  C_3 
REMARK    2  A    between atoms: C_9  and  O_10 
REMARK    3  A    between atoms: O_10  and  C_11 
ROOT
HETATM    1  N   UNL     1      67.617   8.134   5.319  1.00  0.00    -0.195 NA
HETATM    2  C   UNL     1      66.522   7.911   5.632  1.00  0.00     0.085 C 
HETATM    3  C   UNL     1      65.144   7.576   6.033  1.00  0.00     0.299 C 
ENDROOT
BRANCH   3   4
HETATM    4  O   UNL     1      64.266   8.676   5.761  1.00  0.00    -0.338 OA
BRANCH   4   5
HETATM    5  C   UNL     1      63.239   8.414   4.896  1.00  0.00     0.070 A 
HETATM    6  C   UNL     1      63.018   9.082   3.690  1.00  0.00     0.052 A 
HETATM    7  C   UNL     1      61.923   8.744   2.873  1.00  0.00     0.050 A 
HETATM    8  C   UNL     1      61.047   7.730   3.292  1.00  0.00     0.016 A 
HETATM    9  C   UNL     1      61.251   7.082   4.510  1.00  0.00     0.004 A 
HETATM   10  C   UNL     1      62.337   7.431   5.310  1.00  0.00     0.037 A 
BRANCH   7  11
HETATM   11  C   UNL     1      61.690   9.458   1.564  1.00  0.00     0.417 C 
HETATM   12  F   UNL     1      61.650  10.815   1.690  1.00  0.00    -0.166 F 
HETATM   13  F   UNL     1      60.515   9.104   0.975  1.00  0.00    -0.166 F 
HETATM   14  F   UNL     1      62.664   9.200   0.650  1.00  0.00    -0.166 F 
ENDBRANCH   7  11
ENDBRANCH   4   5
ENDBRANCH   3   4
TORSDOF 3
ENDMDL
MODEL 7
REMARK VINA RESULT:      -4.3      3.805      4.622
REMARK  3 active torsions:
REMARK  status: ('A' for Active; 'I' for Inactive)
REMARK    1  A    between atoms: C_1  and  C_3 
REMARK    2  A    between atoms: C_9  and  O_10 
REMARK    3  A    between atoms: O_10  and  C_11 
ROOT
HETATM    1  N   UNL     1      61.702   4.035   0.908  1.00  0.00    -0.195 NA
HETATM    2  C   UNL     1      62.353   4.982   1.077  1.00  0.00     0.085 C 
HETATM    3  C   UNL     1      63.207   6.156   1.327  1.00  0.00     0.299 C 
ENDROOT
BRANCH   3   4
HETATM    4  O   UNL     1      62.594   7.338   0.798  1.00  0.00    -0.338 OA
BRANCH   4   5
HETATM    5  C   UNL     1      62.485   8.389   1.668  1.00  0.00     0.070 A 
HETATM    6  C   UNL     1      62.864   8.359   3.011  1.00  0.00     0.052 A 
HETATM    7  C   UNL     1      62.702   9.494   3.827  1.00  0.00     0.050 A 
HETATM    8  C   UNL     1      62.145  10.658   3.274  1.00  0.00     0.016 A 
HETATM    9  C   UNL     1      61.740  10.680   1.940  1.00  0.00     0.004 A 
HETATM   10  C   UNL     1      61.902   9.546   1.145  1.00  0.00     0.037 A 
BRANCH   7  11
HETATM   11  C   UNL     1      63.122   9.467   5.276  1.00  0.00     0.417 C 
HETATM   12  F   UNL     1      64.474   9.394   5.444  1.00  0.00    -0.166 F 
HETATM   13  F   UNL     1      62.605   8.405   5.953  1.00  0.00    -0.166 F 
HETATM   14  F   UNL     1      62.724  10.577   5.955  1.00  0.00    -0.166 F 
ENDBRANCH   7  11
ENDBRANCH   4   5
ENDBRANCH   3   4
TORSDOF 3
ENDMDL
MODEL 8
REMARK VINA RESULT:      -4.0      4.624      5.469
REMARK  3 active torsions:
REMARK  status: ('A' for Active; 'I' for Inactive)
REMARK    1  A    between atoms: C_1  and  C_3 
REMARK    2  A    between atoms: C_9  and  O_10 
REMARK    3  A    between atoms: O_10  and  C_11 
ROOT
HETATM    1  N   UNL     1      58.552   6.610   9.465  1.00  0.00    -0.195 NA
HETATM    2  C   UNL     1      58.921   6.203   8.442  1.00  0.00     0.085 C 
HETATM    3  C   UNL     1      59.340   5.673   7.133  1.00  0.00     0.299 C 
ENDROOT
BRANCH   3   4
HETATM    4  O   UNL     1      60.765   5.533   7.086  1.00  0.00    -0.338 OA
BRANCH   4   5
HETATM    5  C   UNL     1      61.402   6.265   6.120  1.00  0.00     0.070 A 
HETATM    6  C   UNL     1      62.694   6.781   6.229  1.00  0.00     0.052 A 
HETATM    7  C   UNL     1      63.257   7.531   5.180  1.00  0.00     0.050 A 
HETATM    8  C   UNL     1      62.496   7.763   4.023  1.00  0.00     0.016 A 
HETATM    9  C   UNL     1      61.195   7.272   3.926  1.00  0.00     0.004 A 
HETATM   10  C   UNL     1      60.649   6.535   4.975  1.00  0.00     0.037 A 
BRANCH   7  11
HETATM   11  C   UNL     1      64.658   8.079   5.291  1.00  0.00     0.417 C 
HETATM   12  F   UNL     1      64.702   9.442   5.326  1.00  0.00    -0.166 F 
HETATM   13  F   UNL     1      65.452   7.709   4.249  1.00  0.00    -0.166 F 
HETATM   14  F   UNL     1      65.294   7.660   6.418  1.00  0.00    -0.166 F 
ENDBRANCH   7  11
ENDBRANCH   4   5
ENDBRANCH   3   4
TORSDOF 3
ENDMDL
MODEL 9
REMARK VINA RESULT:      -3.9      4.113      5.079
REMARK  3 active torsions:
REMARK  status: ('A' for Active; 'I' for Inactive)
REMARK    1  A    between atoms: C_1  and  C_3 
REMARK    2  A    between atoms: C_9  and  O_10 
REMARK    3  A    between atoms: O_10  and  C_11 
ROOT
HETATM    1  N   UNL     1      58.747   4.237   3.681  1.00  0.00    -0.195 NA
HETATM    2  C   UNL     1      58.956   5.189   3.051  1.00  0.00     0.085 C 
HETATM    3  C   UNL     1      59.169   6.402   2.242  1.00  0.00     0.299 C 
ENDROOT
BRANCH   3   4
HETATM    4  O   UNL     1      60.555   6.535   1.901  1.00  0.00    -0.338 OA
BRANCH   4   5
HETATM    5  C   UNL     1      61.150   7.707   2.282  1.00  0.00     0.070 A 
HETATM    6  C   UNL     1      61.761   7.930   3.517  1.00  0.00     0.052 A 
HETATM    7  C   UNL     1      62.338   9.178   3.816  1.00  0.00     0.050 A 
HETATM    8  C   UNL     1      62.282  10.202   2.859  1.00  0.00     0.016 A 
HETATM    9  C   UNL     1      61.646   9.990   1.636  1.00  0.00     0.004 A 
HETATM   10  C   UNL     1      61.075   8.750   1.355  1.00  0.00     0.037 A 
BRANCH   7  11
HETATM   11  C   UNL     1      63.010   9.416   5.146  1.00  0.00     0.417 C 
HETATM   12  F   UNL     1      62.654   8.508   6.100  1.00  0.00    -0.166 F 
HETATM   13  F   UNL     1      62.719  10.638   5.671  1.00  0.00    -0.166 F 
HETATM   14  F   UNL     1      64.367   9.353   5.063  1.00  0.00    -0.166 F 
ENDBRANCH   7  11
ENDBRANCH   4   5
ENDBRANCH   3   4
TORSDOF 3
ENDMDL
