MODEL 1
REMARK VINA RESULT:      -3.5      0.000      0.000
REMARK  0 active torsions:
REMARK  status: ('A' for Active; 'I' for Inactive)
ROOT
HETATM    1  N   UNL     1      61.101   9.216   2.916  1.00  0.00    -0.326 N 
ATOM      2  HN  UNL     1      60.432   9.052   2.164  1.00  0.00     0.169 HD
HETATM    3  C   UNL     1      61.482   8.397   3.856  1.00  0.00     0.155 A 
HETATM    4  N   UNL     1      62.396   8.932   4.711  1.00  0.00    -0.310 N 
HETATM    5  C   UNL     1      61.827  10.361   3.187  1.00  0.00     0.121 A 
HETATM    6  C   UNL     1      62.639  10.204   4.301  1.00  0.00     0.141 A 
HETATM    7  S   UNL     1      61.098   6.761   4.292  1.00  0.00    -0.064 SA
HETATM    8  C   UNL     1      62.825   8.100   5.719  1.00  0.00     0.106 A 
HETATM    9  C   UNL     1      62.232   6.895   5.649  1.00  0.00     0.071 A 
HETATM   10 CL   UNL     1      61.700  11.766   2.236  1.00  0.00    -0.063 Cl
ENDROOT
TORSDOF 0
ENDMDL
MODEL 2
REMARK VINA RESULT:      -3.4      4.495      5.197
REMARK  0 active torsions:
REMARK  status: ('A' for Active; 'I' for Inactive)
ROOT
HETATM    1  N   UNL     1      64.548   7.477   6.666  1.00  0.00    -0.326 N 
ATOM      2  HN  UNL     1      63.685   7.499   7.210  1.00  0.00     0.169 HD
HETATM    3  C   UNL     1      65.672   6.882   6.951  1.00  0.00     0.155 A 
HETATM    4  N   UNL     1      66.637   7.051   6.006  1.00  0.00    -0.310 N 
HETATM    5  C   UNL     1      64.810   8.072   5.446  1.00  0.00     0.121 A 
HETATM    6  C   UNL     1      66.106   7.819   5.018  1.00  0.00     0.141 A 
HETATM    7  S   UNL     1      66.249   5.910   8.268  1.00  0.00    -0.064 SA
HETATM    8  C   UNL     1      67.840   6.439   6.268  1.00  0.00     0.106 A 
HETATM    9  C   UNL     1      67.813   5.781   7.441  1.00  0.00     0.071 A 
HETATM   10 CL   UNL     1      63.648   8.993   4.612  1.00  0.00    -0.063 Cl
ENDROOT
TORSDOF 0
ENDMDL
MODEL 3
REMARK VINA RESULT:      -3.3      3.124      3.587
REMARK  0 active torsions:
REMARK  status: ('A' for Active; 'I' for Inactive)
ROOT
HETATM    1  N   UNL     1      64.103   9.424   5.406  1.00  0.00    -0.326 N 
ATOM      2  HN  UNL     1      64.108  10.182   6.088  1.00  0.00     0.169 HD
HETATM    3  C   UNL     1      64.936   8.428   5.294  1.00  0.00     0.155 A 
HETATM    4  N   UNL     1      64.646   7.583   4.268  1.00  0.00    -0.310 N 
HETATM    5  C   UNL     1      63.209   9.199   4.375  1.00  0.00     0.121 A 
HETATM    6  C   UNL     1      63.530   8.058   3.655  1.00  0.00     0.141 A 
HETATM    7  S   UNL     1      66.355   7.910   6.150  1.00  0.00    -0.064 SA
HETATM    8  C   UNL     1      65.502   6.517   4.114  1.00  0.00     0.106 A 
HETATM    9  C   UNL     1      66.480   6.534   5.037  1.00  0.00     0.071 A 
HETATM   10 CL   UNL     1      61.891  10.231   4.071  1.00  0.00    -0.063 Cl
ENDROOT
TORSDOF 0
ENDMDL
MODEL 4
REMARK VINA RESULT:      -3.3      3.155      4.026
REMARK  0 active torsions:
REMARK  status: ('A' for Active; 'I' for Inactive)
ROOT
HETATM    1  N   UNL     1      63.607   9.060   5.626  1.00  0.00    -0.326 N 
ATOM      2  HN  UNL     1      63.594   9.622   6.477  1.00  0.00     0.169 HD
HETATM    3  C   UNL     1      63.020   9.299   4.487  1.00  0.00     0.155 A 
HETATM    4  N   UNL     1      63.237   8.339   3.547  1.00  0.00    -0.310 N 
HETATM    5  C   UNL     1      64.249   7.857   5.400  1.00  0.00     0.121 A 
HETATM    6  C   UNL     1      64.031   7.392   4.111  1.00  0.00     0.141 A 
HETATM    7  S   UNL     1      62.009  10.567   3.867  1.00  0.00    -0.064 SA
HETATM    8  C   UNL     1      62.635   8.553   2.328  1.00  0.00     0.106 A 
HETATM    9  C   UNL     1      61.935   9.701   2.320  1.00  0.00     0.071 A 
HETATM   10 CL   UNL     1      65.182   7.083   6.593  1.00  0.00    -0.063 Cl
ENDROOT
TORSDOF 0
ENDMDL
MODEL 5
REMARK VINA RESULT:      -3.2      4.884      5.850
REMARK  0 active torsions:
REMARK  status: ('A' for Active; 'I' for Inactive)
ROOT
HETATM    1  N   UNL     1      65.444   6.105   7.722  1.00  0.00    -0.326 N 
ATOM      2  HN  UNL     1      65.070   5.346   8.292  1.00  0.00     0.169 HD
HETATM    3  C   UNL     1      64.868   6.744   6.743  1.00  0.00     0.155 A 
HETATM    4  N   UNL     1      65.648   7.709   6.184  1.00  0.00    -0.310 N 
HETATM    5  C   UNL     1      66.687   6.706   7.799  1.00  0.00     0.121 A 
HETATM    6  C   UNL     1      66.833   7.707   6.849  1.00  0.00     0.141 A 
HETATM    7  S   UNL     1      63.320   6.660   5.962  1.00  0.00    -0.064 SA
HETATM    8  C   UNL     1      65.078   8.409   5.146  1.00  0.00     0.106 A 
HETATM    9  C   UNL     1      63.830   7.979   4.890  1.00  0.00     0.071 A 
HETATM   10 CL   UNL     1      67.858   6.235   8.939  1.00  0.00    -0.063 Cl
ENDROOT
TORSDOF 0
ENDMDL
MODEL 6
REMARK VINA RESULT:      -3.2      2.301      2.676
REMARK  0 active torsions:
REMARK  status: ('A' for Active; 'I' for Inactive)
ROOT
HETATM    1  N   UNL     1      61.706  10.460   2.415  1.00  0.00    -0.326 N 
ATOM      2  HN  UNL     1      61.194  11.185   1.912  1.00  0.00     0.169 HD
HETATM    3  C   UNL     1      62.022   9.262   2.010  1.00  0.00     0.155 A 
HETATM    4  N   UNL     1      62.712   8.537   2.931  1.00  0.00    -0.310 N 
HETATM    5  C   UNL     1      62.235  10.508   3.691  1.00  0.00     0.121 A 
HETATM    6  C   UNL     1      62.865   9.320   4.032  1.00  0.00     0.141 A 
HETATM    7  S   UNL     1      61.770   8.350   0.555  1.00  0.00    -0.064 SA
HETATM    8  C   UNL     1      63.066   7.265   2.544  1.00  0.00     0.106 A 
HETATM    9  C   UNL     1      62.642   6.994   1.297  1.00  0.00     0.071 A 
HETATM   10 CL   UNL     1      62.099  11.883   4.683  1.00  0.00    -0.063 Cl
ENDROOT
TORSDOF 0
ENDMDL
MODEL 7
REMARK VINA RESULT:      -3.1      2.861      3.665
REMARK  0 active torsions:
REMARK  status: ('A' for Active; 'I' for Inactive)
ROOT
HETATM    1  N   UNL     1      62.833   7.764   2.625  1.00  0.00    -0.326 N 
ATOM      2  HN  UNL     1      63.212   6.950   3.108  1.00  0.00     0.169 HD
HETATM    3  C   UNL     1      62.584   8.949   3.107  1.00  0.00     0.155 A 
HETATM    4  N   UNL     1      62.075   9.817   2.190  1.00  0.00    -0.310 N 
HETATM    5  C   UNL     1      62.459   7.881   1.300  1.00  0.00     0.121 A 
HETATM    6  C   UNL     1      61.984   9.152   1.009  1.00  0.00     0.141 A 
HETATM    7  S   UNL     1      62.742   9.703   4.663  1.00  0.00    -0.064 SA
HETATM    8  C   UNL     1      61.797  11.081   2.658  1.00  0.00     0.106 A 
HETATM    9  C   UNL     1      62.093  11.199   3.964  1.00  0.00     0.071 A 
HETATM   10 CL   UNL     1      62.585   6.589   0.200  1.00  0.00    -0.063 Cl
ENDROOT
TORSDOF 0
ENDMDL
MODEL 8
REMARK VINA RESULT:      -3.0      3.476      4.171
REMARK  0 active torsions:
REMARK  status: ('A' for Active; 'I' for Inactive)
ROOT
HETATM    1  N   UNL     1      64.577   8.554   4.760  1.00  0.00    -0.326 N 
ATOM      2  HN  UNL     1      64.863   9.223   4.045  1.00  0.00     0.169 HD
HETATM    3  C   UNL     1      65.319   7.931   5.632  1.00  0.00     0.155 A 
HETATM    4  N   UNL     1      64.621   7.098   6.451  1.00  0.00    -0.310 N 
HETATM    5  C   UNL     1      63.306   8.088   5.043  1.00  0.00     0.121 A 
HETATM    6  C   UNL     1      63.313   7.180   6.092  1.00  0.00     0.141 A 
HETATM    7  S   UNL     1      67.014   7.903   6.007  1.00  0.00    -0.064 SA
HETATM    8  C   UNL     1      65.367   6.420   7.387  1.00  0.00     0.106 A 
HETATM    9  C   UNL     1      66.673   6.729   7.293  1.00  0.00     0.071 A 
HETATM   10 CL   UNL     1      61.935   8.598   4.175  1.00  0.00    -0.063 Cl
ENDROOT
TORSDOF 0
ENDMDL
MODEL 9
REMARK VINA RESULT:      -3.0      1.922      2.937
REMARK  0 active torsions:
REMARK  status: ('A' for Active; 'I' for Inactive)
ROOT
HETATM    1  N   UNL     1      62.141   8.900   4.264  1.00  0.00    -0.326 N 
ATOM      2  HN  UNL     1      62.292   8.430   5.156  1.00  0.00     0.169 HD
HETATM    3  C   UNL     1      61.855   8.371   3.107  1.00  0.00     0.155 A 
HETATM    4  N   UNL     1      61.718   9.284   2.107  1.00  0.00    -0.310 N 
HETATM    5  C   UNL     1      62.189  10.253   3.985  1.00  0.00     0.121 A 
HETATM    6  C   UNL     1      61.928  10.512   2.647  1.00  0.00     0.141 A 
HETATM    7  S   UNL     1      61.604   6.757   2.521  1.00  0.00    -0.064 SA
HETATM    8  C   UNL     1      61.415   8.768   0.868  1.00  0.00     0.106 A 
HETATM    9  C   UNL     1      61.317   7.427   0.904  1.00  0.00     0.071 A 
HETATM   10 CL   UNL     1      62.532  11.417   5.178  1.00  0.00    -0.063 Cl
ENDROOT
TORSDOF 0
ENDMDL
