MODEL 1
REMARK VINA RESULT:      -4.2      0.000      0.000
REMARK  3 active torsions:
REMARK  status: ('A' for Active; 'I' for Inactive)
REMARK    1  A    between atoms: C_1  and  C_5 
REMARK    2  A    between atoms: C_5  and  O_9 
REMARK    3  A    between atoms: O_9  and  C_11 
ROOT
HETATM    1  C   UNL     1      63.883   9.045   4.993  1.00  0.00     0.115 A 
HETATM    2  N   UNL     1      65.014   8.831   5.787  1.00  0.00    -0.349 N 
ATOM      3  HN  UNL     1      65.317   9.438   6.548  1.00  0.00     0.166 HD
HETATM    4  C   UNL     1      63.691   8.080   4.018  1.00  0.00     0.087 A 
HETATM    5  C   UNL     1      65.632   7.730   5.410  1.00  0.00     0.047 A 
HETATM    6  S   UNL     1      64.918   6.894   4.089  1.00  0.00    -0.087 SA
HETATM    7  C   UNL     1      66.865   7.184   6.041  1.00  0.00     0.076 C 
ENDROOT
BRANCH   1   8
HETATM    8  C   UNL     1      62.971  10.180   5.167  1.00  0.00     0.310 C 
HETATM    9  O   UNL     1      63.102  10.999   6.073  1.00  0.00    -0.258 OA
BRANCH   8  10
HETATM   10  O   UNL     1      61.978  10.230   4.230  1.00  0.00    -0.317 OA
BRANCH  10  11
HETATM   11  C   UNL     1      61.892  11.451   3.482  1.00  0.00     0.175 C 
HETATM   12  C   UNL     1      61.867  11.173   1.989  1.00  0.00     0.034 C 
ENDBRANCH  10  11
ENDBRANCH   8  10
ENDBRANCH   1   8
TORSDOF 3
ENDMDL
MODEL 2
REMARK VINA RESULT:      -4.1      2.527      4.650
REMARK  3 active torsions:
REMARK  status: ('A' for Active; 'I' for Inactive)
REMARK    1  A    between atoms: C_1  and  C_5 
REMARK    2  A    between atoms: C_5  and  O_9 
REMARK    3  A    between atoms: O_9  and  C_11 
ROOT
HETATM    1  C   UNL     1      62.981   9.323   4.239  1.00  0.00     0.115 A 
HETATM    2  N   UNL     1      62.926   8.615   3.033  1.00  0.00    -0.349 N 
ATOM      3  HN  UNL     1      63.322   7.688   2.882  1.00  0.00     0.166 HD
HETATM    4  C   UNL     1      62.378  10.568   4.186  1.00  0.00     0.087 A 
HETATM    5  C   UNL     1      62.290   9.322   2.121  1.00  0.00     0.047 A 
HETATM    6  S   UNL     1      61.732  10.864   2.632  1.00  0.00    -0.087 SA
HETATM    7  C   UNL     1      62.030   8.875   0.724  1.00  0.00     0.076 C 
ENDROOT
BRANCH   1   8
HETATM    8  C   UNL     1      63.612   8.804   5.457  1.00  0.00     0.310 C 
HETATM    9  O   UNL     1      63.003   8.119   6.275  1.00  0.00    -0.258 OA
BRANCH   8  10
HETATM   10  O   UNL     1      64.924   9.158   5.584  1.00  0.00    -0.317 OA
BRANCH  10  11
HETATM   11  C   UNL     1      65.872   8.093   5.423  1.00  0.00     0.175 C 
HETATM   12  C   UNL     1      66.637   7.848   6.712  1.00  0.00     0.034 C 
ENDBRANCH  10  11
ENDBRANCH   8  10
ENDBRANCH   1   8
TORSDOF 3
ENDMDL
MODEL 3
REMARK VINA RESULT:      -4.0      2.532      5.107
REMARK  3 active torsions:
REMARK  status: ('A' for Active; 'I' for Inactive)
REMARK    1  A    between atoms: C_1  and  C_5 
REMARK    2  A    between atoms: C_5  and  O_9 
REMARK    3  A    between atoms: O_9  and  C_11 
ROOT
HETATM    1  C   UNL     1      64.755   8.324   5.273  1.00  0.00     0.115 A 
HETATM    2  N   UNL     1      63.990   9.492   5.355  1.00  0.00    -0.349 N 
ATOM      3  HN  UNL     1      64.116  10.225   6.051  1.00  0.00     0.166 HD
HETATM    4  C   UNL     1      64.381   7.478   4.243  1.00  0.00     0.087 A 
HETATM    5  C   UNL     1      63.081   9.506   4.400  1.00  0.00     0.047 A 
HETATM    6  S   UNL     1      63.073   8.137   3.363  1.00  0.00    -0.087 SA
HETATM    7  C   UNL     1      62.100  10.603   4.174  1.00  0.00     0.076 C 
ENDROOT
BRANCH   1   8
HETATM    8  C   UNL     1      65.861   8.012   6.186  1.00  0.00     0.310 C 
HETATM    9  O   UNL     1      67.009   8.399   5.988  1.00  0.00    -0.258 OA
BRANCH   8  10
HETATM   10  O   UNL     1      65.483   7.258   7.260  1.00  0.00    -0.317 OA
BRANCH  10  11
HETATM   11  C   UNL     1      66.448   6.297   7.712  1.00  0.00     0.175 C 
HETATM   12  C   UNL     1      66.851   6.568   9.151  1.00  0.00     0.034 C 
ENDBRANCH  10  11
ENDBRANCH   8  10
ENDBRANCH   1   8
TORSDOF 3
ENDMDL
MODEL 4
REMARK VINA RESULT:      -3.9      2.257      3.201
REMARK  3 active torsions:
REMARK  status: ('A' for Active; 'I' for Inactive)
REMARK    1  A    between atoms: C_1  and  C_5 
REMARK    2  A    between atoms: C_5  and  O_9 
REMARK    3  A    between atoms: O_9  and  C_11 
ROOT
HETATM    1  C   UNL     1      65.738   7.476   5.847  1.00  0.00     0.115 A 
HETATM    2  N   UNL     1      65.534   7.331   7.223  1.00  0.00    -0.349 N 
ATOM      3  HN  UNL     1      64.732   7.698   7.736  1.00  0.00     0.166 HD
HETATM    4  C   UNL     1      66.909   6.896   5.389  1.00  0.00     0.087 A 
HETATM    5  C   UNL     1      66.527   6.653   7.760  1.00  0.00     0.047 A 
HETATM    6  S   UNL     1      67.762   6.159   6.673  1.00  0.00    -0.087 SA
HETATM    7  C   UNL     1      66.635   6.297   9.202  1.00  0.00     0.076 C 
ENDROOT
BRANCH   1   8
HETATM    8  C   UNL     1      64.804   8.172   4.955  1.00  0.00     0.310 C 
HETATM    9  O   UNL     1      64.370   7.661   3.926  1.00  0.00    -0.258 OA
BRANCH   8  10
HETATM   10  O   UNL     1      64.473   9.425   5.384  1.00  0.00    -0.317 OA
BRANCH  10  11
HETATM   11  C   UNL     1      63.125   9.836   5.118  1.00  0.00     0.175 C 
HETATM   12  C   UNL     1      62.866  11.233   5.657  1.00  0.00     0.034 C 
ENDBRANCH  10  11
ENDBRANCH   8  10
ENDBRANCH   1   8
TORSDOF 3
ENDMDL
MODEL 5
REMARK VINA RESULT:      -3.5      2.473      4.766
REMARK  3 active torsions:
REMARK  status: ('A' for Active; 'I' for Inactive)
REMARK    1  A    between atoms: C_1  and  C_5 
REMARK    2  A    between atoms: C_5  and  O_9 
REMARK    3  A    between atoms: O_9  and  C_11 
ROOT
HETATM    1  C   UNL     1      62.684   8.823   4.138  1.00  0.00     0.115 A 
HETATM    2  N   UNL     1      62.381  10.178   3.966  1.00  0.00    -0.349 N 
ATOM      3  HN  UNL     1      62.409  10.881   4.704  1.00  0.00     0.166 HD
HETATM    4  C   UNL     1      62.562   8.070   2.982  1.00  0.00     0.087 A 
HETATM    5  C   UNL     1      62.053  10.414   2.712  1.00  0.00     0.047 A 
HETATM    6  S   UNL     1      62.073   9.048   1.670  1.00  0.00    -0.087 SA
HETATM    7  C   UNL     1      61.685  11.749   2.163  1.00  0.00     0.076 C 
ENDROOT
BRANCH   1   8
HETATM    8  C   UNL     1      63.100   8.239   5.418  1.00  0.00     0.310 C 
HETATM    9  O   UNL     1      62.697   8.663   6.498  1.00  0.00    -0.258 OA
BRANCH   8  10
HETATM   10  O   UNL     1      63.966   7.192   5.283  1.00  0.00    -0.317 OA
BRANCH  10  11
HETATM   11  C   UNL     1      64.034   6.296   6.402  1.00  0.00     0.175 C 
HETATM   12  C   UNL     1      65.357   6.442   7.133  1.00  0.00     0.034 C 
ENDBRANCH  10  11
ENDBRANCH   8  10
ENDBRANCH   1   8
TORSDOF 3
ENDMDL
MODEL 6
REMARK VINA RESULT:      -3.5      3.660      5.518
REMARK  3 active torsions:
REMARK  status: ('A' for Active; 'I' for Inactive)
REMARK    1  A    between atoms: C_1  and  C_5 
REMARK    2  A    between atoms: C_5  and  O_9 
REMARK    3  A    between atoms: O_9  and  C_11 
ROOT
HETATM    1  C   UNL     1      65.203   7.139   6.034  1.00  0.00     0.115 A 
HETATM    2  N   UNL     1      63.916   7.233   6.575  1.00  0.00    -0.349 N 
ATOM      3  HN  UNL     1      63.676   7.741   7.426  1.00  0.00     0.166 HD
HETATM    4  C   UNL     1      65.271   6.382   4.877  1.00  0.00     0.087 A 
HETATM    5  C   UNL     1      63.059   6.568   5.827  1.00  0.00     0.047 A 
HETATM    6  S   UNL     1      63.727   5.786   4.451  1.00  0.00    -0.087 SA
HETATM    7  C   UNL     1      61.598   6.462   6.092  1.00  0.00     0.076 C 
ENDROOT
BRANCH   1   8
HETATM    8  C   UNL     1      66.382   7.782   6.624  1.00  0.00     0.310 C 
HETATM    9  O   UNL     1      66.566   8.995   6.574  1.00  0.00    -0.258 OA
BRANCH   8  10
HETATM   10  O   UNL     1      67.237   6.904   7.226  1.00  0.00    -0.317 OA
BRANCH  10  11
HETATM   11  C   UNL     1      67.011   6.678   8.625  1.00  0.00     0.175 C 
HETATM   12  C   UNL     1      68.072   5.760   9.205  1.00  0.00     0.034 C 
ENDBRANCH  10  11
ENDBRANCH   8  10
ENDBRANCH   1   8
TORSDOF 3
ENDMDL
MODEL 7
REMARK VINA RESULT:      -3.5      2.870      4.876
REMARK  3 active torsions:
REMARK  status: ('A' for Active; 'I' for Inactive)
REMARK    1  A    between atoms: C_1  and  C_5 
REMARK    2  A    between atoms: C_5  and  O_9 
REMARK    3  A    between atoms: O_9  and  C_11 
ROOT
HETATM    1  C   UNL     1      64.135   7.260   6.001  1.00  0.00     0.115 A 
HETATM    2  N   UNL     1      63.987   8.602   5.633  1.00  0.00    -0.349 N 
ATOM      3  HN  UNL     1      64.637   9.349   5.874  1.00  0.00     0.166 HD
HETATM    4  C   UNL     1      63.110   6.441   5.559  1.00  0.00     0.087 A 
HETATM    5  C   UNL     1      62.884   8.760   4.928  1.00  0.00     0.047 A 
HETATM    6  S   UNL     1      61.956   7.337   4.673  1.00  0.00    -0.087 SA
HETATM    7  C   UNL     1      62.416  10.053   4.356  1.00  0.00     0.076 C 
ENDROOT
BRANCH   1   8
HETATM    8  C   UNL     1      65.268   6.752   6.782  1.00  0.00     0.310 C 
HETATM    9  O   UNL     1      65.340   6.880   8.001  1.00  0.00    -0.258 OA
BRANCH   8  10
HETATM   10  O   UNL     1      66.217   6.132   6.022  1.00  0.00    -0.317 OA
BRANCH  10  11
HETATM   11  C   UNL     1      67.547   6.660   6.138  1.00  0.00     0.175 C 
HETATM   12  C   UNL     1      67.786   7.757   5.114  1.00  0.00     0.034 C 
ENDBRANCH  10  11
ENDBRANCH   8  10
ENDBRANCH   1   8
TORSDOF 3
ENDMDL
MODEL 8
REMARK VINA RESULT:      -3.3      9.580      9.881
REMARK  3 active torsions:
REMARK  status: ('A' for Active; 'I' for Inactive)
REMARK    1  A    between atoms: C_1  and  C_5 
REMARK    2  A    between atoms: C_5  and  O_9 
REMARK    3  A    between atoms: O_9  and  C_11 
ROOT
HETATM    1  C   UNL     1      58.476   2.991  10.449  1.00  0.00     0.115 A 
HETATM    2  N   UNL     1      58.473   3.086  11.845  1.00  0.00    -0.349 N 
ATOM      3  HN  UNL     1      58.195   3.913  12.373  1.00  0.00     0.166 HD
HETATM    4  C   UNL     1      58.906   1.764   9.972  1.00  0.00     0.087 A 
HETATM    5  C   UNL     1      58.882   1.953  12.378  1.00  0.00     0.047 A 
HETATM    6  S   UNL     1      59.304   0.717  11.263  1.00  0.00    -0.087 SA
HETATM    7  C   UNL     1      58.990   1.688  13.840  1.00  0.00     0.076 C 
ENDROOT
BRANCH   1   8
HETATM    8  C   UNL     1      58.061   4.080   9.559  1.00  0.00     0.310 C 
HETATM    9  O   UNL     1      57.095   3.985   8.807  1.00  0.00    -0.258 OA
BRANCH   8  10
HETATM   10  O   UNL     1      58.849   5.191   9.654  1.00  0.00    -0.317 OA
BRANCH  10  11
HETATM   11  C   UNL     1      58.831   6.063   8.515  1.00  0.00     0.175 C 
HETATM   12  C   UNL     1      59.967   5.734   7.562  1.00  0.00     0.034 C 
ENDBRANCH  10  11
ENDBRANCH   8  10
ENDBRANCH   1   8
TORSDOF 3
ENDMDL
MODEL 9
REMARK VINA RESULT:      -3.3      4.032      5.187
REMARK  3 active torsions:
REMARK  status: ('A' for Active; 'I' for Inactive)
REMARK    1  A    between atoms: C_1  and  C_5 
REMARK    2  A    between atoms: C_5  and  O_9 
REMARK    3  A    between atoms: O_9  and  C_11 
ROOT
HETATM    1  C   UNL     1      60.485   7.935   3.342  1.00  0.00     0.115 A 
HETATM    2  N   UNL     1      59.387   8.140   2.500  1.00  0.00    -0.349 N 
ATOM      3  HN  UNL     1      59.244   8.965   1.918  1.00  0.00     0.166 HD
HETATM    4  C   UNL     1      60.444   6.737   4.036  1.00  0.00     0.087 A 
HETATM    5  C   UNL     1      58.565   7.113   2.568  1.00  0.00     0.047 A 
HETATM    6  S   UNL     1      59.036   5.855   3.638  1.00  0.00    -0.087 SA
HETATM    7  C   UNL     1      57.299   6.981   1.795  1.00  0.00     0.076 C 
ENDROOT
BRANCH   1   8
HETATM    8  C   UNL     1      61.590   8.889   3.485  1.00  0.00     0.310 C 
HETATM    9  O   UNL     1      62.759   8.581   3.268  1.00  0.00    -0.258 OA
BRANCH   8  10
HETATM   10  O   UNL     1      61.187  10.133   3.876  1.00  0.00    -0.317 OA
BRANCH  10  11
HETATM   11  C   UNL     1      62.035  11.216   3.466  1.00  0.00     0.175 C 
HETATM   12  C   UNL     1      61.711  11.652   2.047  1.00  0.00     0.034 C 
ENDBRANCH  10  11
ENDBRANCH   8  10
ENDBRANCH   1   8
TORSDOF 3
ENDMDL
