MODEL 1
REMARK VINA RESULT:      -3.6      0.000      0.000
REMARK  2 active torsions:
REMARK  status: ('A' for Active; 'I' for Inactive)
REMARK    1  A    between atoms: C_1  and  C_4 
REMARK    2  A    between atoms: C_4  and  N_9 
ROOT
HETATM    1  C   UNL     1      63.907   9.077   4.980  1.00  0.00     0.077 A 
HETATM    2  N   UNL     1      64.946   8.993   5.923  1.00  0.00    -0.351 N 
ATOM      3  HN  UNL     1      65.170   9.716   6.608  1.00  0.00     0.166 HD
HETATM    4  C   UNL     1      63.815   7.960   4.165  1.00  0.00     0.084 A 
HETATM    5  C   UNL     1      65.590   7.852   5.800  1.00  0.00     0.047 A 
HETATM    6  S   UNL     1      65.015   6.808   4.566  1.00  0.00    -0.087 SA
HETATM    7  C   UNL     1      66.748   7.434   6.636  1.00  0.00     0.076 C 
ENDROOT
BRANCH   1   8
HETATM    8  C   UNL     1      63.065  10.272   4.948  1.00  0.00     0.121 C 
HETATM    9  S   UNL     1      61.951  10.547   3.749  1.00  0.00    -0.059 SA
BRANCH   8  10
HETATM   10  N   UNL     1      63.250  11.159   5.970  1.00  0.00    -0.388 N 
HETATM   11  H   UNL     1      63.986  11.812   5.928  1.00  0.00     0.157 HD
HETATM   12  H   UNL     1      62.648  11.145   6.749  1.00  0.00     0.157 HD
ENDBRANCH   8  10
ENDBRANCH   1   8
TORSDOF 2
ENDMDL
MODEL 2
REMARK VINA RESULT:      -3.5      1.577      3.945
REMARK  2 active torsions:
REMARK  status: ('A' for Active; 'I' for Inactive)
REMARK    1  A    between atoms: C_1  and  C_4 
REMARK    2  A    between atoms: C_4  and  N_9 
ROOT
HETATM    1  C   UNL     1      65.390   7.994   5.335  1.00  0.00     0.077 A 
HETATM    2  N   UNL     1      64.654   9.157   5.622  1.00  0.00    -0.351 N 
ATOM      3  HN  UNL     1      64.898   9.837   6.341  1.00  0.00     0.166 HD
HETATM    4  C   UNL     1      64.844   7.236   4.311  1.00  0.00     0.084 A 
HETATM    5  C   UNL     1      63.604   9.244   4.832  1.00  0.00     0.047 A 
HETATM    6  S   UNL     1      63.419   7.964   3.704  1.00  0.00    -0.087 SA
HETATM    7  C   UNL     1      62.606  10.347   4.863  1.00  0.00     0.076 C 
ENDROOT
BRANCH   1   8
HETATM    8  C   UNL     1      66.600   7.707   6.104  1.00  0.00     0.121 C 
HETATM    9  S   UNL     1      67.562   6.390   5.795  1.00  0.00    -0.059 SA
BRANCH   8  10
HETATM   10  N   UNL     1      66.896   8.590   7.102  1.00  0.00    -0.388 N 
HETATM   11  H   UNL     1      66.382   8.575   7.942  1.00  0.00     0.157 HD
HETATM   12  H   UNL     1      67.624   9.243   6.982  1.00  0.00     0.157 HD
ENDBRANCH   8  10
ENDBRANCH   1   8
TORSDOF 2
ENDMDL
MODEL 3
REMARK VINA RESULT:      -3.4      2.008      4.262
REMARK  2 active torsions:
REMARK  status: ('A' for Active; 'I' for Inactive)
REMARK    1  A    between atoms: C_1  and  C_4 
REMARK    2  A    between atoms: C_4  and  N_9 
ROOT
HETATM    1  C   UNL     1      63.553   8.783   4.647  1.00  0.00     0.077 A 
HETATM    2  N   UNL     1      63.266   8.371   3.333  1.00  0.00    -0.351 N 
ATOM      3  HN  UNL     1      63.640   7.532   2.892  1.00  0.00     0.166 HD
HETATM    4  C   UNL     1      62.916   9.960   5.006  1.00  0.00     0.084 A 
HETATM    5  C   UNL     1      62.446   9.222   2.753  1.00  0.00     0.047 A 
HETATM    6  S   UNL     1      61.964  10.558   3.716  1.00  0.00    -0.087 SA
HETATM    7  C   UNL     1      61.937   9.097   1.361  1.00  0.00     0.076 C 
ENDROOT
BRANCH   1   8
HETATM    8  C   UNL     1      64.450   7.972   5.469  1.00  0.00     0.121 C 
HETATM    9  S   UNL     1      66.054   7.760   5.098  1.00  0.00    -0.059 SA
BRANCH   8  10
HETATM   10  N   UNL     1      63.888   7.390   6.570  1.00  0.00    -0.388 N 
HETATM   11  H   UNL     1      63.751   7.918   7.390  1.00  0.00     0.157 HD
HETATM   12  H   UNL     1      63.621   6.443   6.544  1.00  0.00     0.157 HD
ENDBRANCH   8  10
ENDBRANCH   1   8
TORSDOF 2
ENDMDL
MODEL 4
REMARK VINA RESULT:      -3.3      2.176      2.758
REMARK  2 active torsions:
REMARK  status: ('A' for Active; 'I' for Inactive)
REMARK    1  A    between atoms: C_1  and  C_4 
REMARK    2  A    between atoms: C_4  and  N_9 
ROOT
HETATM    1  C   UNL     1      65.125   7.302   6.004  1.00  0.00     0.077 A 
HETATM    2  N   UNL     1      65.288   7.093   7.384  1.00  0.00    -0.351 N 
ATOM      3  HN  UNL     1      64.558   7.226   8.083  1.00  0.00     0.166 HD
HETATM    4  C   UNL     1      66.273   7.050   5.270  1.00  0.00     0.084 A 
HETATM    5  C   UNL     1      66.517   6.701   7.648  1.00  0.00     0.047 A 
HETATM    6  S   UNL     1      67.554   6.554   6.290  1.00  0.00    -0.087 SA
HETATM    7  C   UNL     1      67.037   6.391   9.008  1.00  0.00     0.076 C 
ENDROOT
BRANCH   1   8
HETATM    8  C   UNL     1      63.826   7.744   5.497  1.00  0.00     0.121 C 
HETATM    9  S   UNL     1      63.521   7.946   3.878  1.00  0.00    -0.059 SA
BRANCH   8  10
HETATM   10  N   UNL     1      62.868   7.986   6.441  1.00  0.00    -0.388 N 
HETATM   11  H   UNL     1      63.130   8.263   7.348  1.00  0.00     0.157 HD
HETATM   12  H   UNL     1      61.916   7.881   6.213  1.00  0.00     0.157 HD
ENDBRANCH   8  10
ENDBRANCH   1   8
TORSDOF 2
ENDMDL
MODEL 5
REMARK VINA RESULT:      -3.3      2.589      4.604
REMARK  2 active torsions:
REMARK  status: ('A' for Active; 'I' for Inactive)
REMARK    1  A    between atoms: C_1  and  C_4 
REMARK    2  A    between atoms: C_4  and  N_9 
ROOT
HETATM    1  C   UNL     1      65.723   7.280   6.541  1.00  0.00     0.077 A 
HETATM    2  N   UNL     1      64.432   6.837   6.879  1.00  0.00    -0.351 N 
ATOM      3  HN  UNL     1      64.214   6.232   7.670  1.00  0.00     0.166 HD
HETATM    4  C   UNL     1      65.749   8.094   5.420  1.00  0.00     0.084 A 
HETATM    5  C   UNL     1      63.545   7.312   6.031  1.00  0.00     0.047 A 
HETATM    6  S   UNL     1      64.175   8.309   4.784  1.00  0.00    -0.087 SA
HETATM    7  C   UNL     1      62.083   7.042   6.088  1.00  0.00     0.076 C 
ENDROOT
BRANCH   1   8
HETATM    8  C   UNL     1      66.859   6.862   7.362  1.00  0.00     0.121 C 
HETATM    9  S   UNL     1      66.698   6.435   8.957  1.00  0.00    -0.059 SA
BRANCH   8  10
HETATM   10  N   UNL     1      68.074   6.846   6.736  1.00  0.00    -0.388 N 
HETATM   11  H   UNL     1      68.660   7.635   6.778  1.00  0.00     0.157 HD
HETATM   12  H   UNL     1      68.361   6.044   6.242  1.00  0.00     0.157 HD
ENDBRANCH   8  10
ENDBRANCH   1   8
TORSDOF 2
ENDMDL
MODEL 6
REMARK VINA RESULT:      -3.2      2.425      4.437
REMARK  2 active torsions:
REMARK  status: ('A' for Active; 'I' for Inactive)
REMARK    1  A    between atoms: C_1  and  C_4 
REMARK    2  A    between atoms: C_4  and  N_9 
ROOT
HETATM    1  C   UNL     1      62.703   8.567   3.554  1.00  0.00     0.077 A 
HETATM    2  N   UNL     1      62.415   9.943   3.559  1.00  0.00    -0.351 N 
ATOM      3  HN  UNL     1      62.469  10.545   4.380  1.00  0.00     0.166 HD
HETATM    4  C   UNL     1      62.553   7.979   2.308  1.00  0.00     0.084 A 
HETATM    5  C   UNL     1      62.067  10.345   2.355  1.00  0.00     0.047 A 
HETATM    6  S   UNL     1      62.055   9.130   1.144  1.00  0.00    -0.087 SA
HETATM    7  C   UNL     1      61.693  11.741   2.000  1.00  0.00     0.076 C 
ENDROOT
BRANCH   1   8
HETATM    8  C   UNL     1      63.112   7.918   4.799  1.00  0.00     0.121 C 
HETATM    9  S   UNL     1      63.694   6.364   4.846  1.00  0.00    -0.059 SA
BRANCH   8  10
HETATM   10  N   UNL     1      62.985   8.669   5.933  1.00  0.00    -0.388 N 
HETATM   11  H   UNL     1      63.756   8.786   6.534  1.00  0.00     0.157 HD
HETATM   12  H   UNL     1      62.123   9.092   6.149  1.00  0.00     0.157 HD
ENDBRANCH   8  10
ENDBRANCH   1   8
TORSDOF 2
ENDMDL
MODEL 7
REMARK VINA RESULT:      -3.2      3.826      5.002
REMARK  2 active torsions:
REMARK  status: ('A' for Active; 'I' for Inactive)
REMARK    1  A    between atoms: C_1  and  C_4 
REMARK    2  A    between atoms: C_4  and  N_9 
ROOT
HETATM    1  C   UNL     1      61.448   9.129   3.080  1.00  0.00     0.077 A 
HETATM    2  N   UNL     1      60.822   9.167   1.822  1.00  0.00    -0.351 N 
ATOM      3  HN  UNL     1      60.707  10.006   1.255  1.00  0.00     0.166 HD
HETATM    4  C   UNL     1      61.475   7.863   3.644  1.00  0.00     0.084 A 
HETATM    5  C   UNL     1      60.404   7.966   1.480  1.00  0.00     0.047 A 
HETATM    6  S   UNL     1      60.723   6.721   2.616  1.00  0.00    -0.087 SA
HETATM    7  C   UNL     1      59.696   7.642   0.212  1.00  0.00     0.076 C 
ENDROOT
BRANCH   1   8
HETATM    8  C   UNL     1      61.986  10.365   3.647  1.00  0.00     0.121 C 
HETATM    9  S   UNL     1      62.851  10.395   5.064  1.00  0.00    -0.059 SA
BRANCH   8  10
HETATM   10  N   UNL     1      61.733  11.506   2.940  1.00  0.00    -0.388 N 
HETATM   11  H   UNL     1      61.658  12.369   3.408  1.00  0.00     0.157 HD
HETATM   12  H   UNL     1      61.624  11.465   1.962  1.00  0.00     0.157 HD
ENDBRANCH   8  10
ENDBRANCH   1   8
TORSDOF 2
ENDMDL
MODEL 8
REMARK VINA RESULT:      -3.1     13.550     13.569
REMARK  2 active torsions:
REMARK  status: ('A' for Active; 'I' for Inactive)
REMARK    1  A    between atoms: C_1  and  C_4 
REMARK    2  A    between atoms: C_4  and  N_9 
ROOT
HETATM    1  C   UNL     1      56.134   2.222  13.610  1.00  0.00     0.077 A 
HETATM    2  N   UNL     1      56.808   1.167  14.250  1.00  0.00    -0.351 N 
ATOM      3  HN  UNL     1      56.491   0.709  15.104  1.00  0.00     0.166 HD
HETATM    4  C   UNL     1      56.774   2.668  12.464  1.00  0.00     0.084 A 
HETATM    5  C   UNL     1      57.904   0.854  13.592  1.00  0.00     0.047 A 
HETATM    6  S   UNL     1      58.210   1.781  12.181  1.00  0.00    -0.087 SA
HETATM    7  C   UNL     1      58.858  -0.216  13.990  1.00  0.00     0.076 C 
ENDROOT
BRANCH   1   8
HETATM    8  C   UNL     1      54.886   2.725  14.182  1.00  0.00     0.121 C 
HETATM    9  S   UNL     1      54.265   4.215  13.799  1.00  0.00    -0.059 SA
BRANCH   8  10
HETATM   10  N   UNL     1      54.254   1.891  15.061  1.00  0.00    -0.388 N 
HETATM   11  H   UNL     1      54.747   1.520  15.828  1.00  0.00     0.157 HD
HETATM   12  H   UNL     1      53.307   1.661  14.926  1.00  0.00     0.157 HD
ENDBRANCH   8  10
ENDBRANCH   1   8
TORSDOF 2
ENDMDL
MODEL 9
REMARK VINA RESULT:      -3.1      1.539      2.233
REMARK  2 active torsions:
REMARK  status: ('A' for Active; 'I' for Inactive)
REMARK    1  A    between atoms: C_1  and  C_4 
REMARK    2  A    between atoms: C_4  and  N_9 
ROOT
HETATM    1  C   UNL     1      63.911   8.732   4.572  1.00  0.00     0.077 A 
HETATM    2  N   UNL     1      63.603   7.791   3.574  1.00  0.00    -0.351 N 
ATOM      3  HN  UNL     1      62.797   7.845   2.952  1.00  0.00     0.166 HD
HETATM    4  C   UNL     1      65.062   8.427   5.280  1.00  0.00     0.084 A 
HETATM    5  C   UNL     1      64.501   6.828   3.557  1.00  0.00     0.047 A 
HETATM    6  S   UNL     1      65.762   6.972   4.711  1.00  0.00    -0.087 SA
HETATM    7  C   UNL     1      64.483   5.665   2.628  1.00  0.00     0.076 C 
ENDROOT
BRANCH   1   8
HETATM    8  C   UNL     1      63.034   9.887   4.759  1.00  0.00     0.121 C 
HETATM    9  S   UNL     1      61.926  10.361   3.617  1.00  0.00    -0.059 SA
BRANCH   8  10
HETATM   10  N   UNL     1      63.179  10.563   5.938  1.00  0.00    -0.388 N 
HETATM   11  H   UNL     1      62.933  11.514   5.993  1.00  0.00     0.157 HD
HETATM   12  H   UNL     1      63.531  10.097   6.731  1.00  0.00     0.157 HD
ENDBRANCH   8  10
ENDBRANCH   1   8
TORSDOF 2
ENDMDL
