MODEL 1
REMARK VINA RESULT:      -5.0      0.000      0.000
REMARK  3 active torsions:
REMARK  status: ('A' for Active; 'I' for Inactive)
REMARK    1  A    between atoms: C_1  and  C_5 
REMARK    2  A    between atoms: O_4  and  C_5 
REMARK    3  A    between atoms: O_4  and  C_7 
ROOT
HETATM    1  C   UNL     1      63.154   8.775   3.782  1.00  0.00     0.060 A 
HETATM    2  C   UNL     1      63.511   9.340   5.007  1.00  0.00     0.070 A 
HETATM    3  C   UNL     1      62.357   9.495   2.890  1.00  0.00     0.036 A 
HETATM    4 CL   UNL     1      61.953   8.814   1.362  1.00  0.00    -0.084 Cl
HETATM    5  C   UNL     1      62.213  11.313   4.462  1.00  0.00     0.004 A 
HETATM    6  C   UNL     1      63.009  10.597   5.358  1.00  0.00     0.037 A 
HETATM    7  C   UNL     1      61.897  10.767   3.221  1.00  0.00     0.024 A 
ENDROOT
BRANCH   2   8
HETATM    8  O   UNL     1      64.355   8.589   5.784  1.00  0.00    -0.344 OA
BRANCH   8   9
HETATM    9  C   UNL     1      65.521   8.106   5.116  1.00  0.00     0.244 C 
BRANCH   9  10
HETATM   10  C   UNL     1      66.629   7.750   6.098  1.00  0.00     0.095 C 
HETATM   11  S   UNL     1      67.532   6.354   5.948  1.00  0.00    -0.064 SA
HETATM   12  N   UNL     1      66.877   8.620   7.119  1.00  0.00    -0.392 N 
HETATM   13  H   UNL     1      67.586   8.421   7.773  1.00  0.00     0.156 HD
HETATM   14  H   UNL     1      66.347   9.445   7.202  1.00  0.00     0.156 HD
ENDBRANCH   9  10
ENDBRANCH   8   9
ENDBRANCH   2   8
TORSDOF 3
ENDMDL
MODEL 2
REMARK VINA RESULT:      -4.7      1.799      1.852
REMARK  3 active torsions:
REMARK  status: ('A' for Active; 'I' for Inactive)
REMARK    1  A    between atoms: C_1  and  C_5 
REMARK    2  A    between atoms: O_4  and  C_5 
REMARK    3  A    between atoms: O_4  and  C_7 
ROOT
HETATM    1  C   UNL     1      62.723   8.887   3.358  1.00  0.00     0.060 A 
HETATM    2  C   UNL     1      62.787   9.673   4.510  1.00  0.00     0.070 A 
HETATM    3  C   UNL     1      62.259   9.438   2.163  1.00  0.00     0.036 A 
HETATM    4 CL   UNL     1      62.222   8.479   0.735  1.00  0.00    -0.084 Cl
HETATM    5  C   UNL     1      61.857  11.538   3.271  1.00  0.00     0.004 A 
HETATM    6  C   UNL     1      62.319  10.991   4.469  1.00  0.00     0.037 A 
HETATM    7  C   UNL     1      61.838  10.765   2.113  1.00  0.00     0.024 A 
ENDROOT
BRANCH   2   8
HETATM    8  O   UNL     1      63.324   9.067   5.615  1.00  0.00    -0.344 OA
BRANCH   8   9
HETATM    9  C   UNL     1      64.380   8.144   5.344  1.00  0.00     0.244 C 
BRANCH   9  10
HETATM   10  C   UNL     1      64.331   6.941   6.276  1.00  0.00     0.095 C 
HETATM   11  S   UNL     1      65.590   6.568   7.308  1.00  0.00    -0.064 SA
HETATM   12  N   UNL     1      63.211   6.164   6.254  1.00  0.00    -0.392 N 
HETATM   13  H   UNL     1      63.146   5.378   6.843  1.00  0.00     0.156 HD
HETATM   14  H   UNL     1      62.468   6.389   5.649  1.00  0.00     0.156 HD
ENDBRANCH   9  10
ENDBRANCH   8   9
ENDBRANCH   2   8
TORSDOF 3
ENDMDL
MODEL 3
REMARK VINA RESULT:      -4.6      3.868      5.819
REMARK  3 active torsions:
REMARK  status: ('A' for Active; 'I' for Inactive)
REMARK    1  A    between atoms: C_1  and  C_5 
REMARK    2  A    between atoms: O_4  and  C_5 
REMARK    3  A    between atoms: O_4  and  C_7 
ROOT
HETATM    1  C   UNL     1      65.908   7.318   7.022  1.00  0.00     0.060 A 
HETATM    2  C   UNL     1      66.003   8.015   5.817  1.00  0.00     0.070 A 
HETATM    3  C   UNL     1      66.700   6.190   7.238  1.00  0.00     0.036 A 
HETATM    4 CL   UNL     1      66.612   5.357   8.741  1.00  0.00    -0.084 Cl
HETATM    5  C   UNL     1      67.637   6.406   5.030  1.00  0.00     0.004 A 
HETATM    6  C   UNL     1      66.845   7.534   4.808  1.00  0.00     0.037 A 
HETATM    7  C   UNL     1      67.574   5.739   6.251  1.00  0.00     0.024 A 
ENDROOT
BRANCH   2   8
HETATM    8  O   UNL     1      65.242   9.151   5.725  1.00  0.00    -0.344 OA
BRANCH   8   9
HETATM    9  C   UNL     1      63.933   8.959   5.187  1.00  0.00     0.244 C 
BRANCH   9  10
HETATM   10  C   UNL     1      63.159  10.267   5.101  1.00  0.00     0.095 C 
HETATM   11  S   UNL     1      62.014  10.544   3.918  1.00  0.00    -0.064 SA
HETATM   12  N   UNL     1      63.423  11.225   6.036  1.00  0.00    -0.392 N 
HETATM   13  H   UNL     1      62.941  12.083   6.011  1.00  0.00     0.156 HD
HETATM   14  H   UNL     1      64.095  11.057   6.736  1.00  0.00     0.156 HD
ENDBRANCH   9  10
ENDBRANCH   8   9
ENDBRANCH   2   8
TORSDOF 3
ENDMDL
MODEL 4
REMARK VINA RESULT:      -4.5      1.727      2.599
REMARK  3 active torsions:
REMARK  status: ('A' for Active; 'I' for Inactive)
REMARK    1  A    between atoms: C_1  and  C_5 
REMARK    2  A    between atoms: O_4  and  C_5 
REMARK    3  A    between atoms: O_4  and  C_7 
ROOT
HETATM    1  C   UNL     1      63.908   9.354   4.964  1.00  0.00     0.060 A 
HETATM    2  C   UNL     1      64.920   8.413   5.159  1.00  0.00     0.070 A 
HETATM    3  C   UNL     1      62.943   9.144   3.979  1.00  0.00     0.036 A 
HETATM    4 CL   UNL     1      61.670  10.284   3.769  1.00  0.00    -0.084 Cl
HETATM    5  C   UNL     1      64.027   7.094   3.331  1.00  0.00     0.004 A 
HETATM    6  C   UNL     1      64.996   7.300   4.315  1.00  0.00     0.037 A 
HETATM    7  C   UNL     1      62.991   8.011   3.170  1.00  0.00     0.024 A 
ENDROOT
BRANCH   2   8
HETATM    8  O   UNL     1      65.778   8.669   6.197  1.00  0.00    -0.344 OA
BRANCH   8   9
HETATM    9  C   UNL     1      66.875   7.762   6.312  1.00  0.00     0.244 C 
BRANCH   9  10
HETATM   10  C   UNL     1      66.741   6.867   7.537  1.00  0.00     0.095 C 
HETATM   11  S   UNL     1      65.842   5.460   7.512  1.00  0.00    -0.064 SA
HETATM   12  N   UNL     1      67.392   7.243   8.674  1.00  0.00    -0.392 N 
HETATM   13  H   UNL     1      67.328   6.688   9.484  1.00  0.00     0.156 HD
HETATM   14  H   UNL     1      67.927   8.070   8.685  1.00  0.00     0.156 HD
ENDBRANCH   9  10
ENDBRANCH   8   9
ENDBRANCH   2   8
TORSDOF 3
ENDMDL
MODEL 5
REMARK VINA RESULT:      -4.3      3.282      5.160
REMARK  3 active torsions:
REMARK  status: ('A' for Active; 'I' for Inactive)
REMARK    1  A    between atoms: C_1  and  C_5 
REMARK    2  A    between atoms: O_4  and  C_5 
REMARK    3  A    between atoms: O_4  and  C_7 
ROOT
HETATM    1  C   UNL     1      65.252   6.980   4.794  1.00  0.00     0.060 A 
HETATM    2  C   UNL     1      65.860   8.053   5.448  1.00  0.00     0.070 A 
HETATM    3  C   UNL     1      65.973   5.809   4.560  1.00  0.00     0.036 A 
HETATM    4 CL   UNL     1      65.209   4.472   3.792  1.00  0.00    -0.084 Cl
HETATM    5  C   UNL     1      67.927   6.791   5.568  1.00  0.00     0.004 A 
HETATM    6  C   UNL     1      67.211   7.966   5.803  1.00  0.00     0.037 A 
HETATM    7  C   UNL     1      67.305   5.706   4.957  1.00  0.00     0.024 A 
ENDROOT
BRANCH   2   8
HETATM    8  O   UNL     1      65.053   9.132   5.698  1.00  0.00    -0.344 OA
BRANCH   8   9
HETATM    9  C   UNL     1      63.798   9.119   5.016  1.00  0.00     0.244 C 
BRANCH   9  10
HETATM   10  C   UNL     1      63.096  10.467   5.099  1.00  0.00     0.095 C 
HETATM   11  S   UNL     1      61.934  10.930   3.992  1.00  0.00    -0.064 SA
HETATM   12  N   UNL     1      63.437  11.301   6.123  1.00  0.00    -0.392 N 
HETATM   13  H   UNL     1      63.003  12.180   6.207  1.00  0.00     0.156 HD
HETATM   14  H   UNL     1      64.118  11.023   6.777  1.00  0.00     0.156 HD
ENDBRANCH   9  10
ENDBRANCH   8   9
ENDBRANCH   2   8
TORSDOF 3
ENDMDL
MODEL 6
REMARK VINA RESULT:      -4.2      1.950      2.580
REMARK  3 active torsions:
REMARK  status: ('A' for Active; 'I' for Inactive)
REMARK    1  A    between atoms: C_1  and  C_5 
REMARK    2  A    between atoms: O_4  and  C_5 
REMARK    3  A    between atoms: O_4  and  C_7 
ROOT
HETATM    1  C   UNL     1      62.732   9.319   3.948  1.00  0.00     0.060 A 
HETATM    2  C   UNL     1      62.939   8.067   3.366  1.00  0.00     0.070 A 
HETATM    3  C   UNL     1      62.197  10.360   3.189  1.00  0.00     0.036 A 
HETATM    4 CL   UNL     1      61.903  11.890   3.920  1.00  0.00    -0.084 Cl
HETATM    5  C   UNL     1      62.133   8.934   1.250  1.00  0.00     0.004 A 
HETATM    6  C   UNL     1      62.669   7.889   2.005  1.00  0.00     0.037 A 
HETATM    7  C   UNL     1      61.884  10.168   1.845  1.00  0.00     0.024 A 
ENDROOT
BRANCH   2   8
HETATM    8  O   UNL     1      63.398   7.089   4.208  1.00  0.00    -0.344 OA
BRANCH   8   9
HETATM    9  C   UNL     1      64.820   7.011   4.326  1.00  0.00     0.244 C 
BRANCH   9  10
HETATM   10  C   UNL     1      65.290   7.364   5.730  1.00  0.00     0.095 C 
HETATM   11  S   UNL     1      66.854   7.859   6.042  1.00  0.00    -0.064 SA
HETATM   12  N   UNL     1      64.385   7.272   6.746  1.00  0.00    -0.392 N 
HETATM   13  H   UNL     1      64.656   7.493   7.667  1.00  0.00     0.156 HD
HETATM   14  H   UNL     1      63.463   6.985   6.559  1.00  0.00     0.156 HD
ENDBRANCH   9  10
ENDBRANCH   8   9
ENDBRANCH   2   8
TORSDOF 3
ENDMDL
MODEL 7
REMARK VINA RESULT:      -4.1      4.540      5.366
REMARK  3 active torsions:
REMARK  status: ('A' for Active; 'I' for Inactive)
REMARK    1  A    between atoms: C_1  and  C_5 
REMARK    2  A    between atoms: O_4  and  C_5 
REMARK    3  A    between atoms: O_4  and  C_7 
ROOT
HETATM    1  C   UNL     1      62.886   8.785   3.238  1.00  0.00     0.060 A 
HETATM    2  C   UNL     1      62.165   9.718   2.492  1.00  0.00     0.070 A 
HETATM    3  C   UNL     1      63.238   9.071   4.558  1.00  0.00     0.036 A 
HETATM    4 CL   UNL     1      64.089   7.901   5.490  1.00  0.00    -0.084 Cl
HETATM    5  C   UNL     1      62.216  11.243   4.376  1.00  0.00     0.004 A 
HETATM    6  C   UNL     1      61.862  10.963   3.055  1.00  0.00     0.037 A 
HETATM    7  C   UNL     1      62.894  10.292   5.133  1.00  0.00     0.024 A 
ENDROOT
BRANCH   2   8
HETATM    8  O   UNL     1      61.802   9.319   1.232  1.00  0.00    -0.344 OA
BRANCH   8   9
HETATM    9  C   UNL     1      61.484   7.933   1.105  1.00  0.00     0.244 C 
BRANCH   9  10
HETATM   10  C   UNL     1      60.032   7.650   1.466  1.00  0.00     0.095 C 
HETATM   11  S   UNL     1      59.593   6.354   2.423  1.00  0.00    -0.064 SA
HETATM   12  N   UNL     1      59.080   8.502   0.988  1.00  0.00    -0.392 N 
HETATM   13  H   UNL     1      58.132   8.349   1.202  1.00  0.00     0.156 HD
HETATM   14  H   UNL     1      59.342   9.268   0.429  1.00  0.00     0.156 HD
ENDBRANCH   9  10
ENDBRANCH   8   9
ENDBRANCH   2   8
TORSDOF 3
ENDMDL
MODEL 8
REMARK VINA RESULT:      -4.0      1.472      2.030
REMARK  3 active torsions:
REMARK  status: ('A' for Active; 'I' for Inactive)
REMARK    1  A    between atoms: C_1  and  C_5 
REMARK    2  A    between atoms: O_4  and  C_5 
REMARK    3  A    between atoms: O_4  and  C_7 
ROOT
HETATM    1  C   UNL     1      63.103   8.852   3.796  1.00  0.00     0.060 A 
HETATM    2  C   UNL     1      63.074   8.130   4.990  1.00  0.00     0.070 A 
HETATM    3  C   UNL     1      62.078   8.696   2.863  1.00  0.00     0.036 A 
HETATM    4 CL   UNL     1      62.094   9.619   1.411  1.00  0.00    -0.084 Cl
HETATM    5  C   UNL     1      61.024   7.052   4.272  1.00  0.00     0.004 A 
HETATM    6  C   UNL     1      62.048   7.203   5.209  1.00  0.00     0.037 A 
HETATM    7  C   UNL     1      61.031   7.808   3.103  1.00  0.00     0.024 A 
ENDROOT
BRANCH   2   8
HETATM    8  O   UNL     1      64.083   8.404   5.876  1.00  0.00    -0.344 OA
BRANCH   8   9
HETATM    9  C   UNL     1      65.038   7.356   6.047  1.00  0.00     0.244 C 
BRANCH   9  10
HETATM   10  C   UNL     1      66.464   7.889   6.068  1.00  0.00     0.095 C 
HETATM   11  S   UNL     1      67.519   7.646   4.796  1.00  0.00    -0.064 SA
HETATM   12  N   UNL     1      66.866   8.589   7.166  1.00  0.00    -0.392 N 
HETATM   13  H   UNL     1      67.781   8.948   7.213  1.00  0.00     0.156 HD
HETATM   14  H   UNL     1      66.241   8.736   7.912  1.00  0.00     0.156 HD
ENDBRANCH   9  10
ENDBRANCH   8   9
ENDBRANCH   2   8
TORSDOF 3
ENDMDL
MODEL 9
REMARK VINA RESULT:      -4.0      4.312      4.974
REMARK  3 active torsions:
REMARK  status: ('A' for Active; 'I' for Inactive)
REMARK    1  A    between atoms: C_1  and  C_5 
REMARK    2  A    between atoms: O_4  and  C_5 
REMARK    3  A    between atoms: O_4  and  C_7 
ROOT
HETATM    1  C   UNL     1      62.718   9.288   3.828  1.00  0.00     0.060 A 
HETATM    2  C   UNL     1      62.441   8.823   2.541  1.00  0.00     0.070 A 
HETATM    3  C   UNL     1      62.457  10.619   4.158  1.00  0.00     0.036 A 
HETATM    4 CL   UNL     1      62.760  11.179   5.757  1.00  0.00    -0.084 Cl
HETATM    5  C   UNL     1      61.706  11.046   1.911  1.00  0.00     0.004 A 
HETATM    6  C   UNL     1      61.966   9.716   1.575  1.00  0.00     0.037 A 
HETATM    7  C   UNL     1      61.939  11.496   3.208  1.00  0.00     0.024 A 
ENDROOT
BRANCH   2   8
HETATM    8  O   UNL     1      62.661   7.487   2.333  1.00  0.00    -0.344 OA
BRANCH   8   9
HETATM    9  C   UNL     1      61.558   6.773   1.772  1.00  0.00     0.244 C 
BRANCH   9  10
HETATM   10  C   UNL     1      60.460   6.532   2.798  1.00  0.00     0.095 C 
HETATM   11  S   UNL     1      58.935   7.190   2.634  1.00  0.00    -0.064 SA
HETATM   12  N   UNL     1      60.754   5.744   3.872  1.00  0.00    -0.392 N 
HETATM   13  H   UNL     1      60.068   5.567   4.555  1.00  0.00     0.156 HD
HETATM   14  H   UNL     1      61.653   5.352   3.963  1.00  0.00     0.156 HD
ENDBRANCH   9  10
ENDBRANCH   8   9
ENDBRANCH   2   8
TORSDOF 3
ENDMDL
