MODEL 1
REMARK VINA RESULT:      -5.0      0.000      0.000
REMARK  1 active torsions:
REMARK  status: ('A' for Active; 'I' for Inactive)
REMARK    1  A    between atoms: N_1  and  C_2 
REMARK       I    between atoms: N_1  and  C_3 
ROOT
HETATM    1  C   UNL     1      62.350   9.124   4.088  1.00  0.00     0.073 A 
HETATM    2  C   UNL     1      62.190  10.511   4.174  1.00  0.00     0.143 A 
HETATM    3  F   UNL     1      62.307  11.124   5.360  1.00  0.00    -0.204 F 
HETATM    4  C   UNL     1      62.211   8.497   2.849  1.00  0.00     0.033 A 
HETATM    5  C   UNL     1      61.969  11.279   3.035  1.00  0.00     0.044 A 
HETATM    6  C   UNL     1      61.944   9.260   1.708  1.00  0.00     0.002 A 
HETATM    7  C   UNL     1      61.843  10.651   1.798  1.00  0.00     0.003 A 
ENDROOT
BRANCH   1   8
HETATM    8  N   UNL     1      62.577   8.401   5.267  1.00  0.00    -0.325 N 
HETATM    9  C   UNL     1      63.783   7.970   5.753  1.00  0.00     0.218 C 
HETATM   10  O   UNL     1      63.824   7.350   6.817  1.00  0.00    -0.274 OA
HETATM   11  C   UNL     1      65.043   8.353   5.023  1.00  0.00     0.117 C 
HETATM   12  H   UNL     1      61.782   8.177   5.806  1.00  0.00     0.169 HD
ENDBRANCH   1   8
TORSDOF 1
ENDMDL
MODEL 2
REMARK VINA RESULT:      -4.7      1.458      2.056
REMARK  1 active torsions:
REMARK  status: ('A' for Active; 'I' for Inactive)
REMARK    1  A    between atoms: N_1  and  C_2 
REMARK       I    between atoms: N_1  and  C_3 
ROOT
HETATM    1  C   UNL     1      62.305   9.052   4.055  1.00  0.00     0.073 A 
HETATM    2  C   UNL     1      62.395   8.438   2.803  1.00  0.00     0.143 A 
HETATM    3  F   UNL     1      62.636   7.122   2.721  1.00  0.00    -0.204 F 
HETATM    4  C   UNL     1      62.069  10.426   4.125  1.00  0.00     0.033 A 
HETATM    5  C   UNL     1      62.180   9.159   1.633  1.00  0.00     0.044 A 
HETATM    6  C   UNL     1      61.896  11.165   2.950  1.00  0.00     0.002 A 
HETATM    7  C   UNL     1      61.932  10.527   1.707  1.00  0.00     0.003 A 
ENDROOT
BRANCH   1   8
HETATM    8  N   UNL     1      62.526   8.276   5.201  1.00  0.00    -0.325 N 
HETATM    9  C   UNL     1      63.734   7.940   5.750  1.00  0.00     0.218 C 
HETATM   10  O   UNL     1      63.769   7.254   6.774  1.00  0.00    -0.274 OA
HETATM   11  C   UNL     1      64.994   8.499   5.144  1.00  0.00     0.117 C 
HETATM   12  H   UNL     1      61.725   7.935   5.662  1.00  0.00     0.169 HD
ENDBRANCH   1   8
TORSDOF 1
ENDMDL
MODEL 3
REMARK VINA RESULT:      -4.4      2.086      2.593
REMARK  1 active torsions:
REMARK  status: ('A' for Active; 'I' for Inactive)
REMARK    1  A    between atoms: N_1  and  C_2 
REMARK       I    between atoms: N_1  and  C_3 
ROOT
HETATM    1  C   UNL     1      61.702   9.472   3.261  1.00  0.00     0.073 A 
HETATM    2  C   UNL     1      61.887   9.911   1.947  1.00  0.00     0.143 A 
HETATM    3  F   UNL     1      62.374  11.138   1.715  1.00  0.00    -0.204 F 
HETATM    4  C   UNL     1      61.180   8.197   3.488  1.00  0.00     0.033 A 
HETATM    5  C   UNL     1      61.630   9.071   0.868  1.00  0.00     0.044 A 
HETATM    6  C   UNL     1      60.878   7.366   2.405  1.00  0.00     0.002 A 
HETATM    7  C   UNL     1      61.121   7.795   1.097  1.00  0.00     0.003 A 
ENDROOT
BRANCH   1   8
HETATM    8  N   UNL     1      61.982  10.359   4.311  1.00  0.00    -0.325 N 
HETATM    9  C   UNL     1      63.012  10.274   5.210  1.00  0.00     0.218 C 
HETATM   10  O   UNL     1      63.136  11.141   6.076  1.00  0.00    -0.274 OA
HETATM   11  C   UNL     1      64.028   9.174   5.056  1.00  0.00     0.117 C 
HETATM   12  H   UNL     1      61.373  11.126   4.413  1.00  0.00     0.169 HD
ENDBRANCH   1   8
TORSDOF 1
ENDMDL
MODEL 4
REMARK VINA RESULT:      -4.2      2.934      3.993
REMARK  1 active torsions:
REMARK  status: ('A' for Active; 'I' for Inactive)
REMARK    1  A    between atoms: N_1  and  C_2 
REMARK       I    between atoms: N_1  and  C_3 
ROOT
HETATM    1  C   UNL     1      61.417   9.020   3.405  1.00  0.00     0.073 A 
HETATM    2  C   UNL     1      61.852  10.338   3.574  1.00  0.00     0.143 A 
HETATM    3  F   UNL     1      61.341  11.313   2.809  1.00  0.00    -0.204 F 
HETATM    4  C   UNL     1      61.969   8.012   4.198  1.00  0.00     0.033 A 
HETATM    5  C   UNL     1      62.768  10.669   4.567  1.00  0.00     0.044 A 
HETATM    6  C   UNL     1      62.924   8.334   5.168  1.00  0.00     0.002 A 
HETATM    7  C   UNL     1      63.308   9.663   5.365  1.00  0.00     0.003 A 
ENDROOT
BRANCH   1   8
HETATM    8  N   UNL     1      60.488   8.744   2.392  1.00  0.00    -0.325 N 
HETATM    9  C   UNL     1      60.755   8.494   1.072  1.00  0.00     0.218 C 
HETATM   10  O   UNL     1      59.827   8.256   0.298  1.00  0.00    -0.274 OA
HETATM   11  C   UNL     1      62.189   8.419   0.618  1.00  0.00     0.117 C 
HETATM   12  H   UNL     1      59.539   8.728   2.658  1.00  0.00     0.169 HD
ENDBRANCH   1   8
TORSDOF 1
ENDMDL
MODEL 5
REMARK VINA RESULT:      -4.2      3.048      4.239
REMARK  1 active torsions:
REMARK  status: ('A' for Active; 'I' for Inactive)
REMARK    1  A    between atoms: N_1  and  C_2 
REMARK       I    between atoms: N_1  and  C_3 
ROOT
HETATM    1  C   UNL     1      61.486   9.255   3.417  1.00  0.00     0.073 A 
HETATM    2  C   UNL     1      62.152   8.320   4.214  1.00  0.00     0.143 A 
HETATM    3  F   UNL     1      61.966   7.009   4.003  1.00  0.00    -0.204 F 
HETATM    4  C   UNL     1      61.679  10.617   3.657  1.00  0.00     0.033 A 
HETATM    5  C   UNL     1      63.057   8.724   5.190  1.00  0.00     0.044 A 
HETATM    6  C   UNL     1      62.553  11.029   4.668  1.00  0.00     0.002 A 
HETATM    7  C   UNL     1      63.256  10.084   5.420  1.00  0.00     0.003 A 
ENDROOT
BRANCH   1   8
HETATM    8  N   UNL     1      60.590   8.791   2.444  1.00  0.00    -0.325 N 
HETATM    9  C   UNL     1      60.847   8.590   1.114  1.00  0.00     0.218 C 
HETATM   10  O   UNL     1      59.954   8.164   0.379  1.00  0.00    -0.274 OA
HETATM   11  C   UNL     1      62.246   8.800   0.599  1.00  0.00     0.117 C 
HETATM   12  H   UNL     1      59.675   8.587   2.749  1.00  0.00     0.169 HD
ENDBRANCH   1   8
TORSDOF 1
ENDMDL
MODEL 6
REMARK VINA RESULT:      -4.2      2.622      3.397
REMARK  1 active torsions:
REMARK  status: ('A' for Active; 'I' for Inactive)
REMARK    1  A    between atoms: N_1  and  C_2 
REMARK       I    between atoms: N_1  and  C_3 
ROOT
HETATM    1  C   UNL     1      62.554   8.881   2.853  1.00  0.00     0.073 A 
HETATM    2  C   UNL     1      62.162   9.723   1.808  1.00  0.00     0.143 A 
HETATM    3  F   UNL     1      62.084   9.244   0.559  1.00  0.00    -0.204 F 
HETATM    4  C   UNL     1      62.644   9.397   4.147  1.00  0.00     0.033 A 
HETATM    5  C   UNL     1      61.791  11.042   2.050  1.00  0.00     0.044 A 
HETATM    6  C   UNL     1      62.316  10.735   4.389  1.00  0.00     0.002 A 
HETATM    7  C   UNL     1      61.870  11.550   3.345  1.00  0.00     0.003 A 
ENDROOT
BRANCH   1   8
HETATM    8  N   UNL     1      62.911   7.559   2.553  1.00  0.00    -0.325 N 
HETATM    9  C   UNL     1      62.103   6.455   2.599  1.00  0.00     0.218 C 
HETATM   10  O   UNL     1      62.561   5.352   2.294  1.00  0.00    -0.274 OA
HETATM   11  C   UNL     1      60.644   6.629   2.928  1.00  0.00     0.117 C 
HETATM   12  H   UNL     1      63.846   7.408   2.278  1.00  0.00     0.169 HD
ENDBRANCH   1   8
TORSDOF 1
ENDMDL
MODEL 7
REMARK VINA RESULT:      -4.1      1.896      2.578
REMARK  1 active torsions:
REMARK  status: ('A' for Active; 'I' for Inactive)
REMARK    1  A    between atoms: N_1  and  C_2 
REMARK       I    between atoms: N_1  and  C_3 
ROOT
HETATM    1  C   UNL     1      63.660   8.999   4.822  1.00  0.00     0.073 A 
HETATM    2  C   UNL     1      63.286   8.552   3.551  1.00  0.00     0.143 A 
HETATM    3  F   UNL     1      63.714   7.361   3.109  1.00  0.00    -0.204 F 
HETATM    4  C   UNL     1      63.219  10.248   5.263  1.00  0.00     0.033 A 
HETATM    5  C   UNL     1      62.423   9.297   2.754  1.00  0.00     0.044 A 
HETATM    6  C   UNL     1      62.387  11.021   4.447  1.00  0.00     0.002 A 
HETATM    7  C   UNL     1      61.974  10.537   3.202  1.00  0.00     0.003 A 
ENDROOT
BRANCH   1   8
HETATM    8  N   UNL     1      64.528   8.205   5.584  1.00  0.00    -0.325 N 
HETATM    9  C   UNL     1      64.221   7.042   6.239  1.00  0.00     0.218 C 
HETATM   10  O   UNL     1      65.099   6.446   6.865  1.00  0.00    -0.274 OA
HETATM   11  C   UNL     1      62.836   6.467   6.098  1.00  0.00     0.117 C 
HETATM   12  H   UNL     1      65.460   8.516   5.657  1.00  0.00     0.169 HD
ENDBRANCH   1   8
TORSDOF 1
ENDMDL
MODEL 8
REMARK VINA RESULT:      -4.0      2.097      2.776
REMARK  1 active torsions:
REMARK  status: ('A' for Active; 'I' for Inactive)
REMARK    1  A    between atoms: N_1  and  C_2 
REMARK       I    between atoms: N_1  and  C_3 
ROOT
HETATM    1  C   UNL     1      62.726   8.501   3.493  1.00  0.00     0.073 A 
HETATM    2  C   UNL     1      62.985   7.550   2.501  1.00  0.00     0.143 A 
HETATM    3  F   UNL     1      63.638   6.422   2.814  1.00  0.00    -0.204 F 
HETATM    4  C   UNL     1      62.057   9.678   3.150  1.00  0.00     0.033 A 
HETATM    5  C   UNL     1      62.524   7.725   1.201  1.00  0.00     0.044 A 
HETATM    6  C   UNL     1      61.631   9.879   1.834  1.00  0.00     0.002 A 
HETATM    7  C   UNL     1      61.846   8.895   0.865  1.00  0.00     0.003 A 
ENDROOT
BRANCH   1   8
HETATM    8  N   UNL     1      63.210   8.270   4.788  1.00  0.00    -0.325 N 
HETATM    9  C   UNL     1      62.607   7.538   5.776  1.00  0.00     0.218 C 
HETATM   10  O   UNL     1      63.164   7.415   6.868  1.00  0.00    -0.274 OA
HETATM   11  C   UNL     1      61.321   6.816   5.470  1.00  0.00     0.117 C 
HETATM   12  H   UNL     1      64.078   8.679   5.013  1.00  0.00     0.169 HD
ENDBRANCH   1   8
TORSDOF 1
ENDMDL
MODEL 9
REMARK VINA RESULT:      -4.0      2.085      2.735
REMARK  1 active torsions:
REMARK  status: ('A' for Active; 'I' for Inactive)
REMARK    1  A    between atoms: N_1  and  C_2 
REMARK       I    between atoms: N_1  and  C_3 
ROOT
HETATM    1  C   UNL     1      63.081   8.558   4.868  1.00  0.00     0.073 A 
HETATM    2  C   UNL     1      62.276   7.489   5.274  1.00  0.00     0.143 A 
HETATM    3  F   UNL     1      62.526   6.868   6.435  1.00  0.00    -0.204 F 
HETATM    4  C   UNL     1      62.818   9.187   3.650  1.00  0.00     0.033 A 
HETATM    5  C   UNL     1      61.176   7.093   4.520  1.00  0.00     0.044 A 
HETATM    6  C   UNL     1      61.740   8.763   2.866  1.00  0.00     0.002 A 
HETATM    7  C   UNL     1      60.909   7.731   3.310  1.00  0.00     0.003 A 
ENDROOT
BRANCH   1   8
HETATM    8  N   UNL     1      64.173   8.918   5.671  1.00  0.00    -0.325 N 
HETATM    9  C   UNL     1      65.431   8.378   5.644  1.00  0.00     0.218 C 
HETATM   10  O   UNL     1      66.295   8.809   6.409  1.00  0.00    -0.274 OA
HETATM   11  C   UNL     1      65.756   7.334   4.608  1.00  0.00     0.117 C 
HETATM   12  H   UNL     1      64.019   9.638   6.326  1.00  0.00     0.169 HD
ENDBRANCH   1   8
TORSDOF 1
ENDMDL
