MODEL 1
REMARK VINA RESULT:      -5.0      0.000      0.000
REMARK  0 active torsions:
REMARK  status: ('A' for Active; 'I' for Inactive)
ROOT
HETATM    1  C   UNL     1      62.617  10.147   4.243  1.00  0.00     0.112 A 
HETATM    2  C   UNL     1      61.944  10.903   3.149  1.00  0.00     0.266 A 
HETATM    3  N   UNL     1      61.567  10.166   2.047  1.00  0.00    -0.326 N 
HETATM    4  C   UNL     1      62.834   8.829   4.077  1.00  0.00     0.030 A 
HETATM    5  C   UNL     1      63.000  10.823   5.430  1.00  0.00     0.105 C 
HETATM    6  N   UNL     1      63.329  11.320   6.426  1.00  0.00    -0.191 NA
HETATM    7  C   UNL     1      61.790   8.816   1.895  1.00  0.00     0.008 A 
HETATM    8  C   UNL     1      62.419   8.145   2.873  1.00  0.00     0.026 A 
HETATM    9  O   UNL     1      61.727  12.107   3.211  1.00  0.00    -0.267 OA
HETATM   10  C   UNL     1      61.302   8.183   0.628  1.00  0.00     0.068 C 
HETATM   11  H   UNL     1      61.108  10.638   1.316  1.00  0.00     0.169 HD
ENDROOT
TORSDOF 0
ENDMDL
MODEL 2
REMARK VINA RESULT:      -4.9      2.111      2.713
REMARK  0 active torsions:
REMARK  status: ('A' for Active; 'I' for Inactive)
ROOT
HETATM    1  C   UNL     1      62.795   8.978   4.900  1.00  0.00     0.112 A 
HETATM    2  C   UNL     1      62.759  10.437   5.206  1.00  0.00     0.266 A 
HETATM    3  N   UNL     1      62.355  11.261   4.178  1.00  0.00    -0.326 N 
HETATM    4  C   UNL     1      62.464   8.572   3.661  1.00  0.00     0.030 A 
HETATM    5  C   UNL     1      63.161   8.058   5.915  1.00  0.00     0.105 C 
HETATM    6  N   UNL     1      63.445   7.257   6.707  1.00  0.00    -0.191 NA
HETATM    7  C   UNL     1      62.011  10.829   2.917  1.00  0.00     0.008 A 
HETATM    8  C   UNL     1      62.069   9.517   2.640  1.00  0.00     0.026 A 
HETATM    9  O   UNL     1      63.064  10.893   6.302  1.00  0.00    -0.267 OA
HETATM   10  C   UNL     1      61.589  11.873   1.930  1.00  0.00     0.068 C 
HETATM   11  H   UNL     1      62.308  12.228   4.358  1.00  0.00     0.169 HD
ENDROOT
TORSDOF 0
ENDMDL
MODEL 3
REMARK VINA RESULT:      -4.7      1.372      1.485
REMARK  0 active torsions:
REMARK  status: ('A' for Active; 'I' for Inactive)
ROOT
HETATM    1  C   UNL     1      63.099   8.963   3.862  1.00  0.00     0.112 A 
HETATM    2  C   UNL     1      61.988   9.934   3.643  1.00  0.00     0.266 A 
HETATM    3  N   UNL     1      61.100   9.620   2.637  1.00  0.00    -0.326 N 
HETATM    4  C   UNL     1      63.176   7.882   3.065  1.00  0.00     0.030 A 
HETATM    5  C   UNL     1      64.034   9.191   4.905  1.00  0.00     0.105 C 
HETATM    6  N   UNL     1      64.823   9.320   5.746  1.00  0.00    -0.191 NA
HETATM    7  C   UNL     1      61.188   8.505   1.835  1.00  0.00     0.008 A 
HETATM    8  C   UNL     1      62.204   7.647   2.020  1.00  0.00     0.026 A 
HETATM    9  O   UNL     1      61.857  10.953   4.310  1.00  0.00    -0.267 OA
HETATM   10  C   UNL     1      60.124   8.327   0.796  1.00  0.00     0.068 C 
HETATM   11  H   UNL     1      60.349  10.237   2.481  1.00  0.00     0.169 HD
ENDROOT
TORSDOF 0
ENDMDL
MODEL 4
REMARK VINA RESULT:      -4.6      1.783      2.167
REMARK  0 active torsions:
REMARK  status: ('A' for Active; 'I' for Inactive)
ROOT
HETATM    1  C   UNL     1      62.692  10.120   4.149  1.00  0.00     0.112 A 
HETATM    2  C   UNL     1      63.181   8.736   3.883  1.00  0.00     0.266 A 
HETATM    3  N   UNL     1      62.917   8.232   2.627  1.00  0.00    -0.326 N 
HETATM    4  C   UNL     1      62.017  10.762   3.178  1.00  0.00     0.030 A 
HETATM    5  C   UNL     1      62.958  10.728   5.402  1.00  0.00     0.105 C 
HETATM    6  N   UNL     1      63.151  11.281   6.405  1.00  0.00    -0.191 NA
HETATM    7  C   UNL     1      62.232   8.905   1.642  1.00  0.00     0.008 A 
HETATM    8  C   UNL     1      61.772  10.141   1.895  1.00  0.00     0.026 A 
HETATM    9  O   UNL     1      63.786   8.075   4.719  1.00  0.00    -0.267 OA
HETATM   10  C   UNL     1      62.047   8.198   0.335  1.00  0.00     0.068 C 
HETATM   11  H   UNL     1      63.242   7.326   2.421  1.00  0.00     0.169 HD
ENDROOT
TORSDOF 0
ENDMDL
MODEL 5
REMARK VINA RESULT:      -4.5      1.940      3.439
REMARK  0 active torsions:
REMARK  status: ('A' for Active; 'I' for Inactive)
ROOT
HETATM    1  C   UNL     1      62.311   9.859   3.905  1.00  0.00     0.112 A 
HETATM    2  C   UNL     1      62.874  10.002   5.279  1.00  0.00     0.266 A 
HETATM    3  N   UNL     1      63.155   8.827   5.943  1.00  0.00    -0.326 N 
HETATM    4  C   UNL     1      62.093   8.622   3.424  1.00  0.00     0.030 A 
HETATM    5  C   UNL     1      62.032  11.019   3.138  1.00  0.00     0.105 C 
HETATM    6  N   UNL     1      61.792  11.930   2.460  1.00  0.00    -0.191 NA
HETATM    7  C   UNL     1      62.934   7.568   5.434  1.00  0.00     0.008 A 
HETATM    8  C   UNL     1      62.404   7.445   4.207  1.00  0.00     0.026 A 
HETATM    9  O   UNL     1      63.084  11.091   5.800  1.00  0.00    -0.267 OA
HETATM   10  C   UNL     1      63.309   6.407   6.301  1.00  0.00     0.068 C 
HETATM   11  H   UNL     1      63.541   8.894   6.846  1.00  0.00     0.169 HD
ENDROOT
TORSDOF 0
ENDMDL
MODEL 6
REMARK VINA RESULT:      -4.4      2.881      3.704
REMARK  0 active torsions:
REMARK  status: ('A' for Active; 'I' for Inactive)
ROOT
HETATM    1  C   UNL     1      63.245   8.904   3.962  1.00  0.00     0.112 A 
HETATM    2  C   UNL     1      64.414   8.787   4.880  1.00  0.00     0.266 A 
HETATM    3  N   UNL     1      65.210   7.675   4.707  1.00  0.00    -0.326 N 
HETATM    4  C   UNL     1      63.031   7.926   3.064  1.00  0.00     0.030 A 
HETATM    5  C   UNL     1      62.398  10.039   4.047  1.00  0.00     0.105 C 
HETATM    6  N   UNL     1      61.676  10.948   4.064  1.00  0.00    -0.191 NA
HETATM    7  C   UNL     1      64.982   6.686   3.777  1.00  0.00     0.008 A 
HETATM    8  C   UNL     1      63.914   6.784   2.970  1.00  0.00     0.026 A 
HETATM    9  O   UNL     1      64.669   9.623   5.740  1.00  0.00    -0.267 OA
HETATM   10  C   UNL     1      65.962   5.555   3.732  1.00  0.00     0.068 C 
HETATM   11  H   UNL     1      65.997   7.581   5.291  1.00  0.00     0.169 HD
ENDROOT
TORSDOF 0
ENDMDL
MODEL 7
REMARK VINA RESULT:      -4.4      2.183      2.659
REMARK  0 active torsions:
REMARK  status: ('A' for Active; 'I' for Inactive)
ROOT
HETATM    1  C   UNL     1      62.263   9.759   2.779  1.00  0.00     0.112 A 
HETATM    2  C   UNL     1      62.868   8.526   3.362  1.00  0.00     0.266 A 
HETATM    3  N   UNL     1      63.040   7.469   2.495  1.00  0.00    -0.326 N 
HETATM    4  C   UNL     1      61.907   9.750   1.482  1.00  0.00     0.030 A 
HETATM    5  C   UNL     1      62.089  10.907   3.594  1.00  0.00     0.105 C 
HETATM    6  N   UNL     1      61.930  11.879   4.209  1.00  0.00    -0.191 NA
HETATM    7  C   UNL     1      62.677   7.478   1.167  1.00  0.00     0.008 A 
HETATM    8  C   UNL     1      62.110   8.581   0.654  1.00  0.00     0.026 A 
HETATM    9  O   UNL     1      63.202   8.444   4.538  1.00  0.00    -0.267 OA
HETATM   10  C   UNL     1      62.949   6.235   0.378  1.00  0.00     0.068 C 
HETATM   11  H   UNL     1      63.451   6.648   2.851  1.00  0.00     0.169 HD
ENDROOT
TORSDOF 0
ENDMDL
MODEL 8
REMARK VINA RESULT:      -4.1      2.434      3.122
REMARK  0 active torsions:
REMARK  status: ('A' for Active; 'I' for Inactive)
ROOT
HETATM    1  C   UNL     1      62.435   8.753   4.926  1.00  0.00     0.112 A 
HETATM    2  C   UNL     1      61.803   8.455   3.608  1.00  0.00     0.266 A 
HETATM    3  N   UNL     1      61.600   9.536   2.777  1.00  0.00    -0.326 N 
HETATM    4  C   UNL     1      62.733  10.031   5.223  1.00  0.00     0.030 A 
HETATM    5  C   UNL     1      62.716   7.692   5.824  1.00  0.00     0.105 C 
HETATM    6  N   UNL     1      62.977   6.866   6.596  1.00  0.00    -0.191 NA
HETATM    7  C   UNL     1      61.918  10.837   3.092  1.00  0.00     0.008 A 
HETATM    8  C   UNL     1      62.463  11.103   4.290  1.00  0.00     0.026 A 
HETATM    9  O   UNL     1      61.482   7.323   3.268  1.00  0.00    -0.267 OA
HETATM   10  C   UNL     1      61.629  11.879   2.057  1.00  0.00     0.068 C 
HETATM   11  H   UNL     1      61.197   9.364   1.895  1.00  0.00     0.169 HD
ENDROOT
TORSDOF 0
ENDMDL
MODEL 9
REMARK VINA RESULT:      -4.1      3.870      4.676
REMARK  0 active torsions:
REMARK  status: ('A' for Active; 'I' for Inactive)
ROOT
HETATM    1  C   UNL     1      65.535   7.189   4.701  1.00  0.00     0.112 A 
HETATM    2  C   UNL     1      65.372   8.425   5.520  1.00  0.00     0.266 A 
HETATM    3  N   UNL     1      64.264   9.195   5.239  1.00  0.00    -0.326 N 
HETATM    4  C   UNL     1      64.626   6.926   3.745  1.00  0.00     0.030 A 
HETATM    5  C   UNL     1      66.628   6.321   4.953  1.00  0.00     0.105 C 
HETATM    6  N   UNL     1      67.496   5.568   5.118  1.00  0.00    -0.191 NA
HETATM    7  C   UNL     1      63.337   8.907   4.263  1.00  0.00     0.008 A 
HETATM    8  C   UNL     1      63.502   7.806   3.512  1.00  0.00     0.026 A 
HETATM    9  O   UNL     1      66.165   8.750   6.396  1.00  0.00    -0.267 OA
HETATM   10  C   UNL     1      62.192   9.858   4.108  1.00  0.00     0.068 C 
HETATM   11  H   UNL     1      64.125  10.009   5.775  1.00  0.00     0.169 HD
ENDROOT
TORSDOF 0
ENDMDL
