MODEL 1
REMARK VINA RESULT:      -4.7      0.000      0.000
REMARK  2 active torsions:
REMARK  status: ('A' for Active; 'I' for Inactive)
REMARK    1  A    between atoms: C_1  and  N_2 
REMARK    2  A    between atoms: N_2  and  C_3 
ROOT
HETATM    1  C   UNL     1      62.812   9.226   3.825  1.00  0.00     0.040 A 
HETATM    2  C   UNL     1      62.499  10.553   4.185  1.00  0.00    -0.035 A 
HETATM    3  C   UNL     1      62.540   8.794   2.517  1.00  0.00     0.030 A 
HETATM    4  C   UNL     1      62.743  11.147   5.546  1.00  0.00     0.050 C 
HETATM    5  C   UNL     1      61.930  11.406   3.218  1.00  0.00     0.009 A 
HETATM    6  C   UNL     1      61.988   9.655   1.570  1.00  0.00     0.002 A 
HETATM    7  C   UNL     1      61.683  10.961   1.921  1.00  0.00     0.001 A 
ENDROOT
BRANCH   1   8
HETATM    8  N   UNL     1      63.290   8.310   4.791  1.00  0.00    -0.333 N 
HETATM    9  H   UNL     1      62.617   7.968   5.422  1.00  0.00     0.168 HD
BRANCH   8  10
HETATM   10  C   UNL     1      64.565   7.832   4.967  1.00  0.00     0.170 C 
HETATM   11  S   UNL     1      65.384   6.661   4.112  1.00  0.00    -0.041 SA
HETATM   12  N   UNL     1      65.226   8.497   5.959  1.00  0.00    -0.376 N 
HETATM   13  H   UNL     1      64.762   9.193   6.477  1.00  0.00     0.158 HD
HETATM   14  H   UNL     1      66.165   8.280   6.155  1.00  0.00     0.158 HD
ENDBRANCH   8  10
ENDBRANCH   1   8
TORSDOF 2
ENDMDL
MODEL 2
REMARK VINA RESULT:      -4.7      1.158      2.411
REMARK  2 active torsions:
REMARK  status: ('A' for Active; 'I' for Inactive)
REMARK    1  A    between atoms: C_1  and  N_2 
REMARK    2  A    between atoms: N_2  and  C_3 
ROOT
HETATM    1  C   UNL     1      62.405   9.077   3.570  1.00  0.00     0.040 A 
HETATM    2  C   UNL     1      62.283   8.974   2.168  1.00  0.00    -0.035 A 
HETATM    3  C   UNL     1      62.225  10.329   4.177  1.00  0.00     0.030 A 
HETATM    4  C   UNL     1      62.445   7.696   1.390  1.00  0.00     0.050 C 
HETATM    5  C   UNL     1      61.976  10.130   1.424  1.00  0.00     0.009 A 
HETATM    6  C   UNL     1      61.909  11.460   3.427  1.00  0.00     0.002 A 
HETATM    7  C   UNL     1      61.784  11.361   2.049  1.00  0.00     0.001 A 
ENDROOT
BRANCH   1   8
HETATM    8  N   UNL     1      62.812   7.964   4.342  1.00  0.00    -0.333 N 
HETATM    9  H   UNL     1      62.404   7.103   4.094  1.00  0.00     0.168 HD
BRANCH   8  10
HETATM   10  C   UNL     1      63.699   7.921   5.389  1.00  0.00     0.170 C 
HETATM   11  S   UNL     1      65.351   8.124   5.385  1.00  0.00    -0.041 SA
HETATM   12  N   UNL     1      63.066   7.749   6.586  1.00  0.00    -0.376 N 
HETATM   13  H   UNL     1      62.090   7.627   6.612  1.00  0.00     0.158 HD
HETATM   14  H   UNL     1      63.586   7.745   7.421  1.00  0.00     0.158 HD
ENDBRANCH   8  10
ENDBRANCH   1   8
TORSDOF 2
ENDMDL
MODEL 3
REMARK VINA RESULT:      -4.2      2.530      4.547
REMARK  2 active torsions:
REMARK  status: ('A' for Active; 'I' for Inactive)
REMARK    1  A    between atoms: C_1  and  N_2 
REMARK    2  A    between atoms: N_2  and  C_3 
ROOT
HETATM    1  C   UNL     1      64.518   8.208   4.907  1.00  0.00     0.040 A 
HETATM    2  C   UNL     1      64.169   7.240   3.942  1.00  0.00    -0.035 A 
HETATM    3  C   UNL     1      65.854   8.294   5.330  1.00  0.00     0.030 A 
HETATM    4  C   UNL     1      62.780   7.044   3.396  1.00  0.00     0.050 C 
HETATM    5  C   UNL     1      65.173   6.396   3.428  1.00  0.00     0.009 A 
HETATM    6  C   UNL     1      66.837   7.459   4.802  1.00  0.00     0.002 A 
HETATM    7  C   UNL     1      66.496   6.510   3.850  1.00  0.00     0.001 A 
ENDROOT
BRANCH   1   8
HETATM    8  N   UNL     1      63.525   9.005   5.522  1.00  0.00    -0.333 N 
HETATM    9  H   UNL     1      63.120   8.627   6.335  1.00  0.00     0.168 HD
BRANCH   8  10
HETATM   10  C   UNL     1      63.050  10.235   5.139  1.00  0.00     0.170 C 
HETATM   11  S   UNL     1      62.059  10.636   3.863  1.00  0.00    -0.041 SA
HETATM   12  N   UNL     1      63.429  11.220   6.005  1.00  0.00    -0.376 N 
HETATM   13  H   UNL     1      64.015  11.006   6.766  1.00  0.00     0.158 HD
HETATM   14  H   UNL     1      63.117  12.143   5.867  1.00  0.00     0.158 HD
ENDBRANCH   8  10
ENDBRANCH   1   8
TORSDOF 2
ENDMDL
MODEL 4
REMARK VINA RESULT:      -4.2      2.021      2.972
REMARK  2 active torsions:
REMARK  status: ('A' for Active; 'I' for Inactive)
REMARK    1  A    between atoms: C_1  and  N_2 
REMARK    2  A    between atoms: N_2  and  C_3 
ROOT
HETATM    1  C   UNL     1      62.619   8.799   3.099  1.00  0.00     0.040 A 
HETATM    2  C   UNL     1      62.204   9.420   1.902  1.00  0.00    -0.035 A 
HETATM    3  C   UNL     1      62.652   9.556   4.281  1.00  0.00     0.030 A 
HETATM    4  C   UNL     1      62.115   8.726   0.569  1.00  0.00     0.050 C 
HETATM    5  C   UNL     1      61.828  10.777   1.933  1.00  0.00     0.009 A 
HETATM    6  C   UNL     1      62.265  10.895   4.295  1.00  0.00     0.002 A 
HETATM    7  C   UNL     1      61.852  11.506   3.120  1.00  0.00     0.001 A 
ENDROOT
BRANCH   1   8
HETATM    8  N   UNL     1      63.100   7.469   3.093  1.00  0.00    -0.333 N 
HETATM    9  H   UNL     1      63.898   7.309   2.540  1.00  0.00     0.168 HD
BRANCH   8  10
HETATM   10  C   UNL     1      62.605   6.372   3.754  1.00  0.00     0.170 C 
HETATM   11  S   UNL     1      61.139   5.604   3.580  1.00  0.00    -0.041 SA
HETATM   12  N   UNL     1      63.519   5.845   4.620  1.00  0.00    -0.376 N 
HETATM   13  H   UNL     1      64.392   6.282   4.740  1.00  0.00     0.158 HD
HETATM   14  H   UNL     1      63.303   5.028   5.125  1.00  0.00     0.158 HD
ENDBRANCH   8  10
ENDBRANCH   1   8
TORSDOF 2
ENDMDL
MODEL 5
REMARK VINA RESULT:      -4.1      2.663      4.077
REMARK  2 active torsions:
REMARK  status: ('A' for Active; 'I' for Inactive)
REMARK    1  A    between atoms: C_1  and  N_2 
REMARK    2  A    between atoms: N_2  and  C_3 
ROOT
HETATM    1  C   UNL     1      62.372   9.321   2.879  1.00  0.00     0.040 A 
HETATM    2  C   UNL     1      63.208   8.659   3.803  1.00  0.00    -0.035 A 
HETATM    3  C   UNL     1      61.873  10.592   3.205  1.00  0.00     0.030 A 
HETATM    4  C   UNL     1      63.816   7.300   3.580  1.00  0.00     0.050 C 
HETATM    5  C   UNL     1      63.521   9.297   5.019  1.00  0.00     0.009 A 
HETATM    6  C   UNL     1      62.203  11.214   4.408  1.00  0.00     0.002 A 
HETATM    7  C   UNL     1      63.027  10.566   5.315  1.00  0.00     0.001 A 
ENDROOT
BRANCH   1   8
HETATM    8  N   UNL     1      61.953   8.674   1.693  1.00  0.00    -0.333 N 
HETATM    9  H   UNL     1      62.536   8.802   0.911  1.00  0.00     0.168 HD
BRANCH   8  10
HETATM   10  C   UNL     1      60.843   7.892   1.487  1.00  0.00     0.170 C 
HETATM   11  S   UNL     1      60.645   6.255   1.718  1.00  0.00    -0.041 SA
HETATM   12  N   UNL     1      59.764   8.631   1.098  1.00  0.00    -0.376 N 
HETATM   13  H   UNL     1      59.858   9.600   0.955  1.00  0.00     0.158 HD
HETATM   14  H   UNL     1      58.893   8.195   0.959  1.00  0.00     0.158 HD
ENDBRANCH   8  10
ENDBRANCH   1   8
TORSDOF 2
ENDMDL
MODEL 6
REMARK VINA RESULT:      -4.1      1.893      3.214
REMARK  2 active torsions:
REMARK  status: ('A' for Active; 'I' for Inactive)
REMARK    1  A    between atoms: C_1  and  N_2 
REMARK    2  A    between atoms: N_2  and  C_3 
ROOT
HETATM    1  C   UNL     1      64.492   8.277   4.654  1.00  0.00     0.040 A 
HETATM    2  C   UNL     1      64.000   7.449   3.623  1.00  0.00    -0.035 A 
HETATM    3  C   UNL     1      63.750   9.408   5.030  1.00  0.00     0.030 A 
HETATM    4  C   UNL     1      64.689   6.207   3.127  1.00  0.00     0.050 C 
HETATM    5  C   UNL     1      62.775   7.779   3.010  1.00  0.00     0.009 A 
HETATM    6  C   UNL     1      62.534   9.712   4.421  1.00  0.00     0.002 A 
HETATM    7  C   UNL     1      62.046   8.897   3.410  1.00  0.00     0.001 A 
ENDROOT
BRANCH   1   8
HETATM    8  N   UNL     1      65.764   8.039   5.225  1.00  0.00    -0.333 N 
HETATM    9  H   UNL     1      66.531   8.169   4.623  1.00  0.00     0.168 HD
BRANCH   8  10
HETATM   10  C   UNL     1      66.072   7.653   6.507  1.00  0.00     0.170 C 
HETATM   11  S   UNL     1      65.611   6.288   7.340  1.00  0.00    -0.041 SA
HETATM   12  N   UNL     1      66.935   8.523   7.107  1.00  0.00    -0.376 N 
HETATM   13  H   UNL     1      67.221   9.337   6.633  1.00  0.00     0.158 HD
HETATM   14  H   UNL     1      67.270   8.337   8.013  1.00  0.00     0.158 HD
ENDBRANCH   8  10
ENDBRANCH   1   8
TORSDOF 2
ENDMDL
MODEL 7
REMARK VINA RESULT:      -4.0      2.469      3.163
REMARK  2 active torsions:
REMARK  status: ('A' for Active; 'I' for Inactive)
REMARK    1  A    between atoms: C_1  and  N_2 
REMARK    2  A    between atoms: N_2  and  C_3 
ROOT
HETATM    1  C   UNL     1      62.500   8.890   2.553  1.00  0.00     0.040 A 
HETATM    2  C   UNL     1      62.564   9.284   3.906  1.00  0.00    -0.035 A 
HETATM    3  C   UNL     1      62.108   9.831   1.589  1.00  0.00     0.030 A 
HETATM    4  C   UNL     1      62.975   8.381   5.038  1.00  0.00     0.050 C 
HETATM    5  C   UNL     1      62.240  10.613   4.245  1.00  0.00     0.009 A 
HETATM    6  C   UNL     1      61.802  11.144   1.941  1.00  0.00     0.002 A 
HETATM    7  C   UNL     1      61.869  11.536   3.270  1.00  0.00     0.001 A 
ENDROOT
BRANCH   1   8
HETATM    8  N   UNL     1      62.719   7.542   2.184  1.00  0.00    -0.333 N 
HETATM    9  H   UNL     1      63.659   7.251   2.175  1.00  0.00     0.168 HD
BRANCH   8  10
HETATM   10  C   UNL     1      61.797   6.585   1.837  1.00  0.00     0.170 C 
HETATM   11  S   UNL     1      61.110   6.265   0.355  1.00  0.00    -0.041 SA
HETATM   12  N   UNL     1      61.489   5.770   2.888  1.00  0.00    -0.376 N 
HETATM   13  H   UNL     1      61.883   5.941   3.774  1.00  0.00     0.158 HD
HETATM   14  H   UNL     1      60.872   5.015   2.761  1.00  0.00     0.158 HD
ENDBRANCH   8  10
ENDBRANCH   1   8
TORSDOF 2
ENDMDL
MODEL 8
REMARK VINA RESULT:      -3.8      2.469      4.049
REMARK  2 active torsions:
REMARK  status: ('A' for Active; 'I' for Inactive)
REMARK    1  A    between atoms: C_1  and  N_2 
REMARK    2  A    between atoms: N_2  and  C_3 
ROOT
HETATM    1  C   UNL     1      63.236   8.239   3.785  1.00  0.00     0.040 A 
HETATM    2  C   UNL     1      63.817   9.019   4.806  1.00  0.00    -0.035 A 
HETATM    3  C   UNL     1      63.916   7.099   3.330  1.00  0.00     0.030 A 
HETATM    4  C   UNL     1      63.195  10.259   5.390  1.00  0.00     0.050 C 
HETATM    5  C   UNL     1      65.058   8.624   5.344  1.00  0.00     0.009 A 
HETATM    6  C   UNL     1      65.137   6.716   3.881  1.00  0.00     0.002 A 
HETATM    7  C   UNL     1      65.709   7.478   4.889  1.00  0.00     0.001 A 
ENDROOT
BRANCH   1   8
HETATM    8  N   UNL     1      62.043   8.656   3.149  1.00  0.00    -0.333 N 
HETATM    9  H   UNL     1      61.215   8.509   3.660  1.00  0.00     0.168 HD
BRANCH   8  10
HETATM   10  C   UNL     1      61.884   9.241   1.917  1.00  0.00     0.170 C 
HETATM   11  S   UNL     1      62.014   8.566   0.401  1.00  0.00    -0.041 SA
HETATM   12  N   UNL     1      61.503  10.548   2.018  1.00  0.00    -0.376 N 
HETATM   13  H   UNL     1      61.420  10.968   2.904  1.00  0.00     0.158 HD
HETATM   14  H   UNL     1      61.313  11.069   1.206  1.00  0.00     0.158 HD
ENDBRANCH   8  10
ENDBRANCH   1   8
TORSDOF 2
ENDMDL
MODEL 9
REMARK VINA RESULT:      -3.8     13.827     14.949
REMARK  2 active torsions:
REMARK  status: ('A' for Active; 'I' for Inactive)
REMARK    1  A    between atoms: C_1  and  N_2 
REMARK    2  A    between atoms: N_2  and  C_3 
ROOT
HETATM    1  C   UNL     1      57.266   0.760  13.903  1.00  0.00     0.040 A 
HETATM    2  C   UNL     1      57.669  -0.520  13.470  1.00  0.00    -0.035 A 
HETATM    3  C   UNL     1      58.198   1.810  13.879  1.00  0.00     0.030 A 
HETATM    4  C   UNL     1      56.773  -1.729  13.438  1.00  0.00     0.050 C 
HETATM    5  C   UNL     1      58.991  -0.703  13.019  1.00  0.00     0.009 A 
HETATM    6  C   UNL     1      59.499   1.614  13.419  1.00  0.00     0.002 A 
HETATM    7  C   UNL     1      59.895   0.356  12.988  1.00  0.00     0.001 A 
ENDROOT
BRANCH   1   8
HETATM    8  N   UNL     1      55.980   0.963  14.457  1.00  0.00    -0.333 N 
HETATM    9  H   UNL     1      55.778   0.440  15.265  1.00  0.00     0.168 HD
BRANCH   8  10
HETATM   10  C   UNL     1      54.977   1.793  14.020  1.00  0.00     0.170 C 
HETATM   11  S   UNL     1      53.836   1.540  12.834  1.00  0.00    -0.041 SA
HETATM   12  N   UNL     1      54.920   2.949  14.744  1.00  0.00    -0.376 N 
HETATM   13  H   UNL     1      55.584   3.119  15.449  1.00  0.00     0.158 HD
HETATM   14  H   UNL     1      54.216   3.610  14.559  1.00  0.00     0.158 HD
ENDBRANCH   8  10
ENDBRANCH   1   8
TORSDOF 2
ENDMDL
