MODEL 1
REMARK VINA RESULT:      -5.3      0.000      0.000
REMARK  3 active torsions:
REMARK  status: ('A' for Active; 'I' for Inactive)
REMARK    1  A    between atoms: N_1  and  C_3 
REMARK    2  A    between atoms: C_2  and  C_4 
REMARK    3  A    between atoms: C_2  and  N_11 
ROOT
HETATM    1  C   UNL     1      63.238   8.537   4.586  1.00  0.00     0.039 A 
HETATM    2  C   UNL     1      65.208   7.804   5.841  1.00  0.00     0.004 A 
HETATM    3  C   UNL     1      64.615   8.614   4.855  1.00  0.00     0.044 A 
HETATM    4  C   UNL     1      62.464   7.605   5.292  1.00  0.00     0.030 A 
HETATM    5  C   UNL     1      64.414   6.887   6.539  1.00  0.00     0.014 A 
HETATM    6  C   UNL     1      63.052   6.782   6.258  1.00  0.00     0.003 A 
ENDROOT
BRANCH   1   7
HETATM    7  N   UNL     1      62.630   9.418   3.635  1.00  0.00    -0.333 N 
HETATM    8  C   UNL     1      62.373   9.148   2.302  1.00  0.00     0.096 A 
HETATM    9  C   UNL     1      61.826  10.262   1.702  1.00  0.00     0.019 A 
HETATM   10  C   UNL     1      61.728  11.257   2.689  1.00  0.00     0.019 A 
HETATM   11  C   UNL     1      62.210  10.718   3.861  1.00  0.00     0.096 A 
ENDBRANCH   1   7
BRANCH   2  12
HETATM   12  C   UNL     1      66.656   7.947   6.178  1.00  0.00     0.104 C 
HETATM   13  S   UNL     1      67.931   7.608   5.149  1.00  0.00    -0.060 SA
BRANCH  12  14
HETATM   14  N   UNL     1      66.960   8.407   7.434  1.00  0.00    -0.390 N 
HETATM   15  H   UNL     1      66.238   8.660   8.054  1.00  0.00     0.157 HD
HETATM   16  H   UNL     1      67.900   8.484   7.716  1.00  0.00     0.157 HD
ENDBRANCH  12  14
ENDBRANCH   2  12
TORSDOF 3
ENDMDL
MODEL 2
REMARK VINA RESULT:      -5.0      2.469      5.551
REMARK  3 active torsions:
REMARK  status: ('A' for Active; 'I' for Inactive)
REMARK    1  A    between atoms: N_1  and  C_3 
REMARK    2  A    between atoms: C_2  and  C_4 
REMARK    3  A    between atoms: C_2  and  N_11 
ROOT
HETATM    1  C   UNL     1      63.516   8.906   4.740  1.00  0.00     0.039 A 
HETATM    2  C   UNL     1      62.109   9.243   2.765  1.00  0.00     0.004 A 
HETATM    3  C   UNL     1      62.992   8.448   3.519  1.00  0.00     0.044 A 
HETATM    4  C   UNL     1      63.175  10.193   5.179  1.00  0.00     0.030 A 
HETATM    5  C   UNL     1      61.776  10.521   3.229  1.00  0.00     0.014 A 
HETATM    6  C   UNL     1      62.315  10.995   4.424  1.00  0.00     0.003 A 
ENDROOT
BRANCH   1   7
HETATM    7  N   UNL     1      64.354   8.060   5.537  1.00  0.00    -0.333 N 
HETATM    8  C   UNL     1      63.953   6.974   6.294  1.00  0.00     0.096 A 
HETATM    9  C   UNL     1      65.039   6.447   6.959  1.00  0.00     0.019 A 
HETATM   10  C   UNL     1      66.158   7.219   6.600  1.00  0.00     0.019 A 
HETATM   11  C   UNL     1      65.720   8.187   5.723  1.00  0.00     0.096 A 
ENDBRANCH   1   7
BRANCH   2  12
HETATM   12  C   UNL     1      61.493   8.719   1.509  1.00  0.00     0.104 C 
HETATM   13  S   UNL     1      62.315   7.953   0.270  1.00  0.00    -0.060 SA
BRANCH  12  14
HETATM   14  N   UNL     1      60.137   8.872   1.371  1.00  0.00    -0.390 N 
HETATM   15  H   UNL     1      59.761   9.184   0.516  1.00  0.00     0.157 HD
HETATM   16  H   UNL     1      59.539   8.671   2.127  1.00  0.00     0.157 HD
ENDBRANCH  12  14
ENDBRANCH   2  12
TORSDOF 3
ENDMDL
MODEL 3
REMARK VINA RESULT:      -4.7      2.673      5.563
REMARK  3 active torsions:
REMARK  status: ('A' for Active; 'I' for Inactive)
REMARK    1  A    between atoms: N_1  and  C_3 
REMARK    2  A    between atoms: C_2  and  C_4 
REMARK    3  A    between atoms: C_2  and  N_11 
ROOT
HETATM    1  C   UNL     1      65.107   7.238   5.258  1.00  0.00     0.039 A 
HETATM    2  C   UNL     1      63.563   8.994   4.535  1.00  0.00     0.004 A 
HETATM    3  C   UNL     1      64.476   8.475   5.471  1.00  0.00     0.044 A 
HETATM    4  C   UNL     1      64.782   6.504   4.109  1.00  0.00     0.030 A 
HETATM    5  C   UNL     1      63.260   8.246   3.391  1.00  0.00     0.014 A 
HETATM    6  C   UNL     1      63.859   7.004   3.185  1.00  0.00     0.003 A 
ENDROOT
BRANCH   1   7
HETATM    7  N   UNL     1      66.092   6.754   6.179  1.00  0.00    -0.333 N 
HETATM    8  C   UNL     1      66.027   6.801   7.561  1.00  0.00     0.096 A 
HETATM    9  C   UNL     1      67.186   6.282   8.096  1.00  0.00     0.019 A 
HETATM   10  C   UNL     1      67.999   5.888   7.018  1.00  0.00     0.019 A 
HETATM   11  C   UNL     1      67.307   6.172   5.862  1.00  0.00     0.096 A 
ENDBRANCH   1   7
BRANCH   2  12
HETATM   12  C   UNL     1      62.955  10.345   4.727  1.00  0.00     0.104 C 
HETATM   13  S   UNL     1      61.884  11.086   3.677  1.00  0.00    -0.060 SA
BRANCH  12  14
HETATM   14  N   UNL     1      63.299  11.026   5.867  1.00  0.00    -0.390 N 
HETATM   15  H   UNL     1      63.254  12.009   5.886  1.00  0.00     0.157 HD
HETATM   16  H   UNL     1      63.592  10.531   6.667  1.00  0.00     0.157 HD
ENDBRANCH  12  14
ENDBRANCH   2  12
TORSDOF 3
ENDMDL
MODEL 4
REMARK VINA RESULT:      -4.7      1.730      2.113
REMARK  3 active torsions:
REMARK  status: ('A' for Active; 'I' for Inactive)
REMARK    1  A    between atoms: N_1  and  C_3 
REMARK    2  A    between atoms: C_2  and  C_4 
REMARK    3  A    between atoms: C_2  and  N_11 
ROOT
HETATM    1  C   UNL     1      64.177   7.781   4.048  1.00  0.00     0.039 A 
HETATM    2  C   UNL     1      65.734   7.102   5.811  1.00  0.00     0.004 A 
HETATM    3  C   UNL     1      64.850   8.044   5.253  1.00  0.00     0.044 A 
HETATM    4  C   UNL     1      64.433   6.573   3.383  1.00  0.00     0.030 A 
HETATM    5  C   UNL     1      65.966   5.900   5.133  1.00  0.00     0.014 A 
HETATM    6  C   UNL     1      65.326   5.642   3.921  1.00  0.00     0.003 A 
ENDROOT
BRANCH   1   7
HETATM    7  N   UNL     1      63.222   8.713   3.527  1.00  0.00    -0.333 N 
HETATM    8  C   UNL     1      62.710   9.823   4.175  1.00  0.00     0.096 A 
HETATM    9  C   UNL     1      61.780  10.441   3.368  1.00  0.00     0.019 A 
HETATM   10  C   UNL     1      61.712   9.703   2.174  1.00  0.00     0.019 A 
HETATM   11  C   UNL     1      62.608   8.663   2.287  1.00  0.00     0.096 A 
ENDBRANCH   1   7
BRANCH   2  12
HETATM   12  C   UNL     1      66.384   7.353   7.132  1.00  0.00     0.104 C 
HETATM   13  S   UNL     1      66.384   6.297   8.430  1.00  0.00    -0.060 SA
BRANCH  12  14
HETATM   14  N   UNL     1      67.044   8.545   7.285  1.00  0.00    -0.390 N 
HETATM   15  H   UNL     1      67.176   9.138   6.510  1.00  0.00     0.157 HD
HETATM   16  H   UNL     1      67.387   8.809   8.170  1.00  0.00     0.157 HD
ENDBRANCH  12  14
ENDBRANCH   2  12
TORSDOF 3
ENDMDL
MODEL 5
REMARK VINA RESULT:      -4.3      2.291      3.119
REMARK  3 active torsions:
REMARK  status: ('A' for Active; 'I' for Inactive)
REMARK    1  A    between atoms: N_1  and  C_3 
REMARK    2  A    between atoms: C_2  and  C_4 
REMARK    3  A    between atoms: C_2  and  N_11 
ROOT
HETATM    1  C   UNL     1      61.850   8.772   3.265  1.00  0.00     0.039 A 
HETATM    2  C   UNL     1      63.947   8.478   4.493  1.00  0.00     0.004 A 
HETATM    3  C   UNL     1      62.977   7.999   3.594  1.00  0.00     0.044 A 
HETATM    4  C   UNL     1      61.685  10.020   3.883  1.00  0.00     0.030 A 
HETATM    5  C   UNL     1      63.765   9.731   5.090  1.00  0.00     0.014 A 
HETATM    6  C   UNL     1      62.635  10.492   4.793  1.00  0.00     0.003 A 
ENDROOT
BRANCH   1   7
HETATM    7  N   UNL     1      60.907   8.309   2.292  1.00  0.00    -0.333 N 
HETATM    8  C   UNL     1      60.939   8.549   0.929  1.00  0.00     0.096 A 
HETATM    9  C   UNL     1      59.833   7.980   0.334  1.00  0.00     0.019 A 
HETATM   10  C   UNL     1      59.090   7.356   1.352  1.00  0.00     0.019 A 
HETATM   11  C   UNL     1      59.770   7.557   2.533  1.00  0.00     0.096 A 
ENDBRANCH   1   7
BRANCH   2  12
HETATM   12  C   UNL     1      65.182   7.687   4.777  1.00  0.00     0.104 C 
HETATM   13  S   UNL     1      66.202   7.916   6.084  1.00  0.00    -0.060 SA
BRANCH  12  14
HETATM   14  N   UNL     1      65.495   6.683   3.897  1.00  0.00    -0.390 N 
HETATM   15  H   UNL     1      66.427   6.377   3.811  1.00  0.00     0.157 HD
HETATM   16  H   UNL     1      64.788   6.270   3.350  1.00  0.00     0.157 HD
ENDBRANCH  12  14
ENDBRANCH   2  12
TORSDOF 3
ENDMDL
MODEL 6
REMARK VINA RESULT:      -4.3      3.000      5.114
REMARK  3 active torsions:
REMARK  status: ('A' for Active; 'I' for Inactive)
REMARK    1  A    between atoms: N_1  and  C_3 
REMARK    2  A    between atoms: C_2  and  C_4 
REMARK    3  A    between atoms: C_2  and  N_11 
ROOT
HETATM    1  C   UNL     1      62.993   6.576   5.871  1.00  0.00     0.039 A 
HETATM    2  C   UNL     1      63.423   8.884   5.180  1.00  0.00     0.004 A 
HETATM    3  C   UNL     1      62.550   7.893   5.662  1.00  0.00     0.044 A 
HETATM    4  C   UNL     1      64.319   6.252   5.551  1.00  0.00     0.030 A 
HETATM    5  C   UNL     1      64.745   8.539   4.875  1.00  0.00     0.014 A 
HETATM    6  C   UNL     1      65.186   7.228   5.050  1.00  0.00     0.003 A 
ENDROOT
BRANCH   1   7
HETATM    7  N   UNL     1      62.116   5.592   6.434  1.00  0.00    -0.333 N 
HETATM    8  C   UNL     1      62.390   4.248   6.617  1.00  0.00     0.096 A 
HETATM    9  C   UNL     1      61.281   3.618   7.139  1.00  0.00     0.019 A 
HETATM   10  C   UNL     1      60.285   4.598   7.299  1.00  0.00     0.019 A 
HETATM   11  C   UNL     1      60.820   5.795   6.877  1.00  0.00     0.096 A 
ENDBRANCH   1   7
BRANCH   2  12
HETATM   12  C   UNL     1      62.969  10.300   5.036  1.00  0.00     0.104 C 
HETATM   13  S   UNL     1      61.994  10.887   3.810  1.00  0.00    -0.060 SA
BRANCH  12  14
HETATM   14  N   UNL     1      63.380  11.186   5.999  1.00  0.00    -0.390 N 
HETATM   15  H   UNL     1      63.755  12.058   5.738  1.00  0.00     0.157 HD
HETATM   16  H   UNL     1      63.299  10.951   6.952  1.00  0.00     0.157 HD
ENDBRANCH  12  14
ENDBRANCH   2  12
TORSDOF 3
ENDMDL
MODEL 7
REMARK VINA RESULT:      -4.2      3.140      6.300
REMARK  3 active torsions:
REMARK  status: ('A' for Active; 'I' for Inactive)
REMARK    1  A    between atoms: N_1  and  C_3 
REMARK    2  A    between atoms: C_2  and  C_4 
REMARK    3  A    between atoms: C_2  and  N_11 
ROOT
HETATM    1  C   UNL     1      65.316   6.909   6.569  1.00  0.00     0.039 A 
HETATM    2  C   UNL     1      63.054   7.087   5.651  1.00  0.00     0.004 A 
HETATM    3  C   UNL     1      64.000   6.430   6.459  1.00  0.00     0.044 A 
HETATM    4  C   UNL     1      65.687   8.038   5.825  1.00  0.00     0.030 A 
HETATM    5  C   UNL     1      63.446   8.217   4.924  1.00  0.00     0.014 A 
HETATM    6  C   UNL     1      64.758   8.683   5.003  1.00  0.00     0.003 A 
ENDROOT
BRANCH   1   7
HETATM    7  N   UNL     1      66.251   6.278   7.452  1.00  0.00    -0.333 N 
HETATM    8  C   UNL     1      66.891   6.859   8.533  1.00  0.00     0.096 A 
HETATM    9  C   UNL     1      67.751   5.947   9.105  1.00  0.00     0.019 A 
HETATM   10  C   UNL     1      67.641   4.755   8.368  1.00  0.00     0.019 A 
HETATM   11  C   UNL     1      66.712   4.975   7.375  1.00  0.00     0.096 A 
ENDBRANCH   1   7
BRANCH   2  12
HETATM   12  C   UNL     1      61.636   6.621   5.601  1.00  0.00     0.104 C 
HETATM   13  S   UNL     1      60.660   6.626   4.242  1.00  0.00    -0.060 SA
BRANCH  12  14
HETATM   14  N   UNL     1      61.097   6.139   6.766  1.00  0.00    -0.390 N 
HETATM   15  H   UNL     1      61.353   5.247   7.095  1.00  0.00     0.157 HD
HETATM   16  H   UNL     1      60.454   6.685   7.275  1.00  0.00     0.157 HD
ENDBRANCH  12  14
ENDBRANCH   2  12
TORSDOF 3
ENDMDL
MODEL 8
REMARK VINA RESULT:      -4.2      2.413      3.461
REMARK  3 active torsions:
REMARK  status: ('A' for Active; 'I' for Inactive)
REMARK    1  A    between atoms: N_1  and  C_3 
REMARK    2  A    between atoms: C_2  and  C_4 
REMARK    3  A    between atoms: C_2  and  N_11 
ROOT
HETATM    1  C   UNL     1      65.223   7.576   5.237  1.00  0.00     0.039 A 
HETATM    2  C   UNL     1      66.021   5.688   6.574  1.00  0.00     0.004 A 
HETATM    3  C   UNL     1      64.967   6.440   6.023  1.00  0.00     0.044 A 
HETATM    4  C   UNL     1      66.552   7.976   5.041  1.00  0.00     0.030 A 
HETATM    5  C   UNL     1      67.340   6.101   6.358  1.00  0.00     0.014 A 
HETATM    6  C   UNL     1      67.603   7.245   5.604  1.00  0.00     0.003 A 
ENDROOT
BRANCH   1   7
HETATM    7  N   UNL     1      64.147   8.291   4.617  1.00  0.00    -0.333 N 
HETATM    8  C   UNL     1      63.540   9.443   5.086  1.00  0.00     0.096 A 
HETATM    9  C   UNL     1      62.512   9.801   4.241  1.00  0.00     0.019 A 
HETATM   10  C   UNL     1      62.479   8.851   3.205  1.00  0.00     0.019 A 
HETATM   11  C   UNL     1      63.492   7.949   3.447  1.00  0.00     0.096 A 
ENDBRANCH   1   7
BRANCH   2  12
HETATM   12  C   UNL     1      65.746   4.436   7.342  1.00  0.00     0.104 C 
HETATM   13  S   UNL     1      64.656   3.246   6.900  1.00  0.00    -0.060 SA
BRANCH  12  14
HETATM   14  N   UNL     1      66.459   4.245   8.498  1.00  0.00    -0.390 N 
HETATM   15  H   UNL     1      66.578   4.990   9.131  1.00  0.00     0.157 HD
HETATM   16  H   UNL     1      66.852   3.364   8.695  1.00  0.00     0.157 HD
ENDBRANCH  12  14
ENDBRANCH   2  12
TORSDOF 3
ENDMDL
MODEL 9
REMARK VINA RESULT:      -4.1      3.703      5.204
REMARK  3 active torsions:
REMARK  status: ('A' for Active; 'I' for Inactive)
REMARK    1  A    between atoms: N_1  and  C_3 
REMARK    2  A    between atoms: C_2  and  C_4 
REMARK    3  A    between atoms: C_2  and  N_11 
ROOT
HETATM    1  C   UNL     1      66.094   6.280   7.375  1.00  0.00     0.039 A 
HETATM    2  C   UNL     1      66.999   4.097   8.011  1.00  0.00     0.004 A 
HETATM    3  C   UNL     1      66.123   4.882   7.240  1.00  0.00     0.044 A 
HETATM    4  C   UNL     1      66.930   6.883   8.327  1.00  0.00     0.030 A 
HETATM    5  C   UNL     1      67.830   4.722   8.949  1.00  0.00     0.014 A 
HETATM    6  C   UNL     1      67.787   6.106   9.111  1.00  0.00     0.003 A 
ENDROOT
BRANCH   1   7
HETATM    7  N   UNL     1      65.254   7.078   6.532  1.00  0.00    -0.333 N 
HETATM    8  C   UNL     1      63.891   6.931   6.345  1.00  0.00     0.096 A 
HETATM    9  C   UNL     1      63.449   7.853   5.422  1.00  0.00     0.019 A 
HETATM   10  C   UNL     1      64.566   8.609   5.025  1.00  0.00     0.019 A 
HETATM   11  C   UNL     1      65.651   8.129   5.724  1.00  0.00     0.096 A 
ENDBRANCH   1   7
BRANCH   2  12
HETATM   12  C   UNL     1      67.083   2.619   7.807  1.00  0.00     0.104 C 
HETATM   13  S   UNL     1      67.724   1.523   8.896  1.00  0.00    -0.060 SA
BRANCH  12  14
HETATM   14  N   UNL     1      66.580   2.124   6.631  1.00  0.00    -0.390 N 
HETATM   15  H   UNL     1      65.666   2.359   6.348  1.00  0.00     0.157 HD
HETATM   16  H   UNL     1      67.132   1.534   6.068  1.00  0.00     0.157 HD
ENDBRANCH  12  14
ENDBRANCH   2  12
TORSDOF 3
ENDMDL
