MODEL 1
REMARK VINA RESULT:      -5.2      0.000      0.000
REMARK  3 active torsions:
REMARK  status: ('A' for Active; 'I' for Inactive)
REMARK    1  A    between atoms: S_1  and  C_2 
REMARK    2  A    between atoms: S_1  and  C_4 
REMARK    3  A    between atoms: C_2  and  C_3 
ROOT
HETATM    1  S   UNL     1      63.165   7.154   5.560  1.00  0.00     0.181 S 
HETATM    2  O   UNL     1      63.153   7.628   6.934  1.00  0.00    -0.222 OA
HETATM    3  O   UNL     1      62.328   6.048   5.143  1.00  0.00    -0.222 OA
ENDROOT
BRANCH   1   4
HETATM    4  C   UNL     1      64.853   6.827   5.123  1.00  0.00     0.214 C 
BRANCH   4   5
HETATM    5  C   UNL     1      65.770   7.188   6.259  1.00  0.00     0.085 C 
HETATM    6  S   UNL     1      66.566   6.035   7.165  1.00  0.00    -0.065 SA
HETATM    7  N   UNL     1      66.035   8.508   6.469  1.00  0.00    -0.393 N 
HETATM    8  H   UNL     1      65.570   9.195   5.939  1.00  0.00     0.156 HD
HETATM    9  H   UNL     1      66.692   8.776   7.153  1.00  0.00     0.156 HD
ENDBRANCH   4   5
ENDBRANCH   1   4
BRANCH   1  10
HETATM   10  C   UNL     1      62.721   8.535   4.523  1.00  0.00     0.059 A 
HETATM   11  C   UNL     1      62.690   9.820   5.074  1.00  0.00     0.025 A 
HETATM   12  C   UNL     1      62.339  10.906   4.266  1.00  0.00     0.025 A 
HETATM   13  C   UNL     1      62.040  10.700   2.918  1.00  0.00     0.034 A 
HETATM   14  C   UNL     1      62.091   9.419   2.367  1.00  0.00     0.025 A 
HETATM   15 CL   UNL     1      61.611  12.039   1.926  1.00  0.00    -0.084 Cl
HETATM   16  C   UNL     1      62.433   8.329   3.171  1.00  0.00     0.025 A 
ENDBRANCH   1  10
TORSDOF 3
ENDMDL
MODEL 2
REMARK VINA RESULT:      -5.1      1.900      2.488
REMARK  3 active torsions:
REMARK  status: ('A' for Active; 'I' for Inactive)
REMARK    1  A    between atoms: S_1  and  C_2 
REMARK    2  A    between atoms: S_1  and  C_4 
REMARK    3  A    between atoms: C_2  and  C_3 
ROOT
HETATM    1  S   UNL     1      65.125   7.822   5.988  1.00  0.00     0.181 S 
HETATM    2  O   UNL     1      65.854   9.051   6.256  1.00  0.00    -0.222 OA
HETATM    3  O   UNL     1      64.306   7.200   7.007  1.00  0.00    -0.222 OA
ENDROOT
BRANCH   1   4
HETATM    4  C   UNL     1      66.286   6.642   5.348  1.00  0.00     0.214 C 
BRANCH   4   5
HETATM    5  C   UNL     1      67.110   6.057   6.462  1.00  0.00     0.085 C 
HETATM    6  S   UNL     1      67.716   4.504   6.404  1.00  0.00    -0.065 SA
HETATM    7  N   UNL     1      67.456   6.875   7.496  1.00  0.00    -0.393 N 
HETATM    8  H   UNL     1      67.103   7.794   7.538  1.00  0.00     0.156 HD
HETATM    9  H   UNL     1      68.060   6.548   8.202  1.00  0.00     0.156 HD
ENDBRANCH   4   5
ENDBRANCH   1   4
BRANCH   1  10
HETATM   10  C   UNL     1      64.045   8.143   4.606  1.00  0.00     0.059 A 
HETATM   11  C   UNL     1      63.969   7.209   3.568  1.00  0.00     0.025 A 
HETATM   12  C   UNL     1      63.126   7.457   2.481  1.00  0.00     0.025 A 
HETATM   13  C   UNL     1      62.357   8.622   2.450  1.00  0.00     0.034 A 
HETATM   14  C   UNL     1      62.421   9.542   3.497  1.00  0.00     0.025 A 
HETATM   15 CL   UNL     1      61.319   8.924   1.111  1.00  0.00    -0.084 Cl
HETATM   16  C   UNL     1      63.267   9.304   4.583  1.00  0.00     0.025 A 
ENDBRANCH   1  10
TORSDOF 3
ENDMDL
MODEL 3
REMARK VINA RESULT:      -4.8      2.342      2.736
REMARK  3 active torsions:
REMARK  status: ('A' for Active; 'I' for Inactive)
REMARK    1  A    between atoms: S_1  and  C_2 
REMARK    2  A    between atoms: S_1  and  C_4 
REMARK    3  A    between atoms: C_2  and  C_3 
ROOT
HETATM    1  S   UNL     1      65.895   7.935   5.827  1.00  0.00     0.181 S 
HETATM    2  O   UNL     1      66.998   7.364   5.072  1.00  0.00    -0.222 OA
HETATM    3  O   UNL     1      66.034   9.203   6.512  1.00  0.00    -0.222 OA
ENDROOT
BRANCH   1   4
HETATM    4  C   UNL     1      65.331   6.696   6.967  1.00  0.00     0.214 C 
BRANCH   4   5
HETATM    5  C   UNL     1      66.454   6.261   7.868  1.00  0.00     0.085 C 
HETATM    6  S   UNL     1      66.766   4.655   8.193  1.00  0.00    -0.065 SA
HETATM    7  N   UNL     1      67.302   7.218   8.337  1.00  0.00    -0.393 N 
HETATM    8  H   UNL     1      67.126   8.169   8.149  1.00  0.00     0.156 HD
HETATM    9  H   UNL     1      68.093   6.960   8.864  1.00  0.00     0.156 HD
ENDBRANCH   4   5
ENDBRANCH   1   4
BRANCH   1  10
HETATM   10  C   UNL     1      64.527   8.123   4.699  1.00  0.00     0.059 A 
HETATM   11  C   UNL     1      63.667   9.217   4.846  1.00  0.00     0.025 A 
HETATM   12  C   UNL     1      62.591   9.367   3.966  1.00  0.00     0.025 A 
HETATM   13  C   UNL     1      62.395   8.438   2.943  1.00  0.00     0.034 A 
HETATM   14  C   UNL     1      63.266   7.360   2.788  1.00  0.00     0.025 A 
HETATM   15 CL   UNL     1      61.071   8.628   1.860  1.00  0.00    -0.084 Cl
HETATM   16  C   UNL     1      64.339   7.199   3.668  1.00  0.00     0.025 A 
ENDBRANCH   1  10
TORSDOF 3
ENDMDL
MODEL 4
REMARK VINA RESULT:      -4.7      1.834      2.276
REMARK  3 active torsions:
REMARK  status: ('A' for Active; 'I' for Inactive)
REMARK    1  A    between atoms: S_1  and  C_2 
REMARK    2  A    between atoms: S_1  and  C_4 
REMARK    3  A    between atoms: C_2  and  C_3 
ROOT
HETATM    1  S   UNL     1      63.613   8.177   5.567  1.00  0.00     0.181 S 
HETATM    2  O   UNL     1      64.405   9.394   5.495  1.00  0.00    -0.222 OA
HETATM    3  O   UNL     1      62.814   7.873   6.737  1.00  0.00    -0.222 OA
ENDROOT
BRANCH   1   4
HETATM    4  C   UNL     1      64.692   6.815   5.207  1.00  0.00     0.214 C 
BRANCH   4   5
HETATM    5  C   UNL     1      65.939   6.897   6.043  1.00  0.00     0.085 C 
HETATM    6  S   UNL     1      67.465   6.737   5.388  1.00  0.00    -0.065 SA
HETATM    7  N   UNL     1      65.804   7.224   7.359  1.00  0.00    -0.393 N 
HETATM    8  H   UNL     1      64.907   7.321   7.754  1.00  0.00     0.156 HD
HETATM    9  H   UNL     1      66.604   7.363   7.917  1.00  0.00     0.156 HD
ENDBRANCH   4   5
ENDBRANCH   1   4
BRANCH   1  10
HETATM   10  C   UNL     1      62.486   8.200   4.185  1.00  0.00     0.059 A 
HETATM   11  C   UNL     1      62.714   9.093   3.134  1.00  0.00     0.025 A 
HETATM   12  C   UNL     1      61.831   9.117   2.050  1.00  0.00     0.025 A 
HETATM   13  C   UNL     1      60.745   8.241   2.019  1.00  0.00     0.034 A 
HETATM   14  C   UNL     1      60.532   7.338   3.061  1.00  0.00     0.025 A 
HETATM   15 CL   UNL     1      59.662   8.272   0.682  1.00  0.00    -0.084 Cl
HETATM   16  C   UNL     1      61.406   7.314   4.151  1.00  0.00     0.025 A 
ENDBRANCH   1  10
TORSDOF 3
ENDMDL
MODEL 5
REMARK VINA RESULT:      -4.6      2.122      2.679
REMARK  3 active torsions:
REMARK  status: ('A' for Active; 'I' for Inactive)
REMARK    1  A    between atoms: S_1  and  C_2 
REMARK    2  A    between atoms: S_1  and  C_4 
REMARK    3  A    between atoms: C_2  and  C_3 
ROOT
HETATM    1  S   UNL     1      63.293   7.382   5.927  1.00  0.00     0.181 S 
HETATM    2  O   UNL     1      64.622   7.710   6.416  1.00  0.00    -0.222 OA
HETATM    3  O   UNL     1      62.183   7.202   6.840  1.00  0.00    -0.222 OA
ENDROOT
BRANCH   1   4
HETATM    4  C   UNL     1      63.446   5.956   4.881  1.00  0.00     0.214 C 
BRANCH   4   5
HETATM    5  C   UNL     1      62.342   4.976   5.163  1.00  0.00     0.085 C 
HETATM    6  S   UNL     1      61.093   4.704   4.091  1.00  0.00    -0.065 SA
HETATM    7  N   UNL     1      62.441   4.211   6.287  1.00  0.00    -0.393 N 
HETATM    8  H   UNL     1      63.175   4.364   6.925  1.00  0.00     0.156 HD
HETATM    9  H   UNL     1      61.777   3.504   6.462  1.00  0.00     0.156 HD
ENDBRANCH   4   5
ENDBRANCH   1   4
BRANCH   1  10
HETATM   10  C   UNL     1      62.811   8.680   4.803  1.00  0.00     0.059 A 
HETATM   11  C   UNL     1      62.761   9.999   5.264  1.00  0.00     0.025 A 
HETATM   12  C   UNL     1      62.380  11.019   4.389  1.00  0.00     0.025 A 
HETATM   13  C   UNL     1      62.070  10.716   3.061  1.00  0.00     0.034 A 
HETATM   14  C   UNL     1      62.140   9.401   2.600  1.00  0.00     0.025 A 
HETATM   15 CL   UNL     1      61.604  11.974   1.985  1.00  0.00    -0.084 Cl
HETATM   16  C   UNL     1      62.512   8.375   3.472  1.00  0.00     0.025 A 
ENDBRANCH   1  10
TORSDOF 3
ENDMDL
MODEL 6
REMARK VINA RESULT:      -4.6      1.559      1.882
REMARK  3 active torsions:
REMARK  status: ('A' for Active; 'I' for Inactive)
REMARK    1  A    between atoms: S_1  and  C_2 
REMARK    2  A    between atoms: S_1  and  C_4 
REMARK    3  A    between atoms: C_2  and  C_3 
ROOT
HETATM    1  S   UNL     1      64.386   6.548   6.031  1.00  0.00     0.181 S 
HETATM    2  O   UNL     1      63.958   7.366   7.154  1.00  0.00    -0.222 OA
HETATM    3  O   UNL     1      64.068   5.136   5.969  1.00  0.00    -0.222 OA
ENDROOT
BRANCH   1   4
HETATM    4  C   UNL     1      66.136   6.776   5.843  1.00  0.00     0.214 C 
BRANCH   4   5
HETATM    5  C   UNL     1      66.741   7.289   7.121  1.00  0.00     0.085 C 
HETATM    6  S   UNL     1      67.267   6.269   8.331  1.00  0.00    -0.065 SA
HETATM    7  N   UNL     1      66.961   8.629   7.229  1.00  0.00    -0.393 N 
HETATM    8  H   UNL     1      66.654   9.239   6.519  1.00  0.00     0.156 HD
HETATM    9  H   UNL     1      67.426   8.989   8.019  1.00  0.00     0.156 HD
ENDBRANCH   4   5
ENDBRANCH   1   4
BRANCH   1  10
HETATM   10  C   UNL     1      63.704   7.279   4.555  1.00  0.00     0.059 A 
HETATM   11  C   UNL     1      63.257   8.604   4.594  1.00  0.00     0.025 A 
HETATM   12  C   UNL     1      62.718   9.181   3.440  1.00  0.00     0.025 A 
HETATM   13  C   UNL     1      62.646   8.438   2.260  1.00  0.00     0.034 A 
HETATM   14  C   UNL     1      63.111   7.123   2.221  1.00  0.00     0.025 A 
HETATM   15 CL   UNL     1      61.985   9.152   0.842  1.00  0.00    -0.084 Cl
HETATM   16  C   UNL     1      63.644   6.538   3.372  1.00  0.00     0.025 A 
ENDBRANCH   1  10
TORSDOF 3
ENDMDL
MODEL 7
REMARK VINA RESULT:      -4.5      1.491      2.046
REMARK  3 active torsions:
REMARK  status: ('A' for Active; 'I' for Inactive)
REMARK    1  A    between atoms: S_1  and  C_2 
REMARK    2  A    between atoms: S_1  and  C_4 
REMARK    3  A    between atoms: C_2  and  C_3 
ROOT
HETATM    1  S   UNL     1      63.208   7.162   5.543  1.00  0.00     0.181 S 
HETATM    2  O   UNL     1      63.152   7.618   6.923  1.00  0.00    -0.222 OA
HETATM    3  O   UNL     1      62.408   6.042   5.092  1.00  0.00    -0.222 OA
ENDROOT
BRANCH   1   4
HETATM    4  C   UNL     1      64.914   6.880   5.144  1.00  0.00     0.214 C 
BRANCH   4   5
HETATM    5  C   UNL     1      65.106   5.488   4.610  1.00  0.00     0.085 C 
HETATM    6  S   UNL     1      65.614   4.224   5.574  1.00  0.00    -0.065 SA
HETATM    7  N   UNL     1      64.742   5.243   3.320  1.00  0.00    -0.393 N 
HETATM    8  H   UNL     1      64.441   5.983   2.744  1.00  0.00     0.156 HD
HETATM    9  H   UNL     1      64.780   4.326   2.963  1.00  0.00     0.156 HD
ENDBRANCH   4   5
ENDBRANCH   1   4
BRANCH   1  10
HETATM   10  C   UNL     1      62.757   8.546   4.513  1.00  0.00     0.059 A 
HETATM   11  C   UNL     1      62.511   8.333   3.153  1.00  0.00     0.025 A 
HETATM   12  C   UNL     1      62.161   9.415   2.340  1.00  0.00     0.025 A 
HETATM   13  C   UNL     1      62.042  10.691   2.895  1.00  0.00     0.034 A 
HETATM   14  C   UNL     1      62.268  10.895   4.257  1.00  0.00     0.025 A 
HETATM   15 CL   UNL     1      61.608  12.020   1.893  1.00  0.00    -0.084 Cl
HETATM   16  C   UNL     1      62.627   9.820   5.073  1.00  0.00     0.025 A 
ENDBRANCH   1  10
TORSDOF 3
ENDMDL
MODEL 8
REMARK VINA RESULT:      -4.3      4.211      6.372
REMARK  3 active torsions:
REMARK  status: ('A' for Active; 'I' for Inactive)
REMARK    1  A    between atoms: S_1  and  C_2 
REMARK    2  A    between atoms: S_1  and  C_4 
REMARK    3  A    between atoms: C_2  and  C_3 
ROOT
HETATM    1  S   UNL     1      64.697   7.682   6.022  1.00  0.00     0.181 S 
HETATM    2  O   UNL     1      63.352   7.659   6.573  1.00  0.00    -0.222 OA
HETATM    3  O   UNL     1      65.482   8.899   6.015  1.00  0.00    -0.222 OA
ENDROOT
BRANCH   1   4
HETATM    4  C   UNL     1      64.612   7.013   4.381  1.00  0.00     0.214 C 
BRANCH   4   5
HETATM    5  C   UNL     1      63.506   7.669   3.601  1.00  0.00     0.085 C 
HETATM    6  S   UNL     1      62.567   6.832   2.506  1.00  0.00    -0.065 SA
HETATM    7  N   UNL     1      63.202   8.965   3.894  1.00  0.00    -0.393 N 
HETATM    8  H   UNL     1      63.751   9.467   4.540  1.00  0.00     0.156 HD
HETATM    9  H   UNL     1      62.433   9.401   3.460  1.00  0.00     0.156 HD
ENDBRANCH   4   5
ENDBRANCH   1   4
BRANCH   1  10
HETATM   10  C   UNL     1      65.654   6.476   6.921  1.00  0.00     0.059 A 
HETATM   11  C   UNL     1      66.501   6.904   7.948  1.00  0.00     0.025 A 
HETATM   12  C   UNL     1      67.256   5.962   8.653  1.00  0.00     0.025 A 
HETATM   13  C   UNL     1      67.146   4.607   8.338  1.00  0.00     0.034 A 
HETATM   14  C   UNL     1      66.285   4.182   7.326  1.00  0.00     0.025 A 
HETATM   15 CL   UNL     1      68.075   3.450   9.210  1.00  0.00    -0.084 Cl
HETATM   16  C   UNL     1      65.533   5.118   6.612  1.00  0.00     0.025 A 
ENDBRANCH   1  10
TORSDOF 3
ENDMDL
MODEL 9
REMARK VINA RESULT:      -4.2      4.416      5.436
REMARK  3 active torsions:
REMARK  status: ('A' for Active; 'I' for Inactive)
REMARK    1  A    between atoms: S_1  and  C_2 
REMARK    2  A    between atoms: S_1  and  C_4 
REMARK    3  A    between atoms: C_2  and  C_3 
ROOT
HETATM    1  S   UNL     1      61.777   9.316   3.099  1.00  0.00     0.181 S 
HETATM    2  O   UNL     1      61.523  10.398   4.036  1.00  0.00    -0.222 OA
HETATM    3  O   UNL     1      61.978   9.579   1.689  1.00  0.00    -0.222 OA
ENDROOT
BRANCH   1   4
HETATM    4  C   UNL     1      60.485   8.117   3.306  1.00  0.00     0.214 C 
BRANCH   4   5
HETATM    5  C   UNL     1      60.010   7.619   1.970  1.00  0.00     0.085 C 
HETATM    6  S   UNL     1      60.325   6.072   1.430  1.00  0.00    -0.065 SA
HETATM    7  N   UNL     1      59.202   8.435   1.236  1.00  0.00    -0.393 N 
HETATM    8  H   UNL     1      59.010   9.349   1.547  1.00  0.00     0.156 HD
HETATM    9  H   UNL     1      58.809   8.110   0.393  1.00  0.00     0.156 HD
ENDBRANCH   4   5
ENDBRANCH   1   4
BRANCH   1  10
HETATM   10  C   UNL     1      63.239   8.464   3.662  1.00  0.00     0.059 A 
HETATM   11  C   UNL     1      63.964   8.988   4.736  1.00  0.00     0.025 A 
HETATM   12  C   UNL     1      65.112   8.326   5.179  1.00  0.00     0.025 A 
HETATM   13  C   UNL     1      65.514   7.142   4.558  1.00  0.00     0.034 A 
HETATM   14  C   UNL     1      64.776   6.611   3.499  1.00  0.00     0.025 A 
HETATM   15 CL   UNL     1      66.926   6.327   5.107  1.00  0.00    -0.084 Cl
HETATM   16  C   UNL     1      63.632   7.272   3.046  1.00  0.00     0.025 A 
ENDBRANCH   1  10
TORSDOF 3
ENDMDL
