MODEL 1
REMARK VINA RESULT:      -4.7      0.000      0.000
REMARK  2 active torsions:
REMARK  status: ('A' for Active; 'I' for Inactive)
REMARK    1  A    between atoms: C_1  and  C_4 
REMARK    2  A    between atoms: C_2  and  C_3 
ROOT
HETATM    1  C   UNL     1      62.623   8.456   3.721  1.00  0.00     0.032 A 
HETATM    2  C   UNL     1      62.239   9.683   3.155  1.00  0.00     0.063 A 
HETATM    3  N   UNL     1      63.104   9.598   5.839  1.00  0.00    -0.374 N 
ATOM      4  HN  UNL     1      63.414   9.552   6.809  1.00  0.00     0.164 HD
HETATM    5  C   UNL     1      63.038   8.490   5.061  1.00  0.00     0.102 A 
HETATM    6  C   UNL     1      62.305  10.846   3.963  1.00  0.00     0.034 A 
HETATM    7  C   UNL     1      62.741  10.758   5.271  1.00  0.00     0.088 A 
ENDROOT
BRANCH   1   8
HETATM    8  C   UNL     1      62.635   7.129   3.043  1.00  0.00     0.106 C 
HETATM    9  S   UNL     1      61.275   6.187   2.756  1.00  0.00    -0.060 SA
HETATM   10  N   UNL     1      63.820   6.636   2.575  1.00  0.00    -0.389 N 
HETATM   11  H   UNL     1      64.653   7.144   2.713  1.00  0.00     0.157 HD
HETATM   12  H   UNL     1      63.842   5.774   2.101  1.00  0.00     0.157 HD
ENDBRANCH   1   8
BRANCH   2  13
HETATM   13  C   UNL     1      61.770   9.921   1.746  1.00  0.00     0.418 C 
HETATM   14  F   UNL     1      60.624   9.301   1.369  1.00  0.00    -0.166 F 
HETATM   15  F   UNL     1      61.548  11.247   1.518  1.00  0.00    -0.166 F 
HETATM   16  F   UNL     1      62.704   9.545   0.825  1.00  0.00    -0.166 F 
ENDBRANCH   2  13
TORSDOF 2
ENDMDL
MODEL 2
REMARK VINA RESULT:      -4.7      2.331      2.989
REMARK  2 active torsions:
REMARK  status: ('A' for Active; 'I' for Inactive)
REMARK    1  A    between atoms: C_1  and  C_4 
REMARK    2  A    between atoms: C_2  and  C_3 
ROOT
HETATM    1  C   UNL     1      63.173   9.297   4.724  1.00  0.00     0.032 A 
HETATM    2  C   UNL     1      62.640   9.145   3.433  1.00  0.00     0.063 A 
HETATM    3  N   UNL     1      62.375  11.617   4.767  1.00  0.00    -0.374 N 
ATOM      4  HN  UNL     1      62.283  12.503   5.263  1.00  0.00     0.164 HD
HETATM    5  C   UNL     1      63.001  10.552   5.327  1.00  0.00     0.102 A 
HETATM    6  C   UNL     1      61.984  10.254   2.842  1.00  0.00     0.034 A 
HETATM    7  C   UNL     1      61.884  11.447   3.530  1.00  0.00     0.088 A 
ENDROOT
BRANCH   1   8
HETATM    8  C   UNL     1      63.903   8.264   5.512  1.00  0.00     0.106 C 
HETATM    9  S   UNL     1      65.552   7.963   5.402  1.00  0.00    -0.060 SA
HETATM   10  N   UNL     1      63.214   7.519   6.425  1.00  0.00    -0.389 N 
HETATM   11  H   UNL     1      62.243   7.649   6.536  1.00  0.00     0.157 HD
HETATM   12  H   UNL     1      63.686   6.851   6.973  1.00  0.00     0.157 HD
ENDBRANCH   1   8
BRANCH   2  13
HETATM   13  C   UNL     1      62.700   7.916   2.570  1.00  0.00     0.418 C 
HETATM   14  F   UNL     1      63.881   7.249   2.535  1.00  0.00    -0.166 F 
HETATM   15  F   UNL     1      61.781   6.989   2.967  1.00  0.00    -0.166 F 
HETATM   16  F   UNL     1      62.401   8.189   1.267  1.00  0.00    -0.166 F 
ENDBRANCH   2  13
TORSDOF 2
ENDMDL
MODEL 3
REMARK VINA RESULT:      -4.2      1.600      1.985
REMARK  2 active torsions:
REMARK  status: ('A' for Active; 'I' for Inactive)
REMARK    1  A    between atoms: C_1  and  C_4 
REMARK    2  A    between atoms: C_2  and  C_3 
ROOT
HETATM    1  C   UNL     1      62.829   9.052   4.354  1.00  0.00     0.032 A 
HETATM    2  C   UNL     1      62.163   9.445   3.181  1.00  0.00     0.063 A 
HETATM    3  N   UNL     1      62.673  11.351   5.198  1.00  0.00    -0.374 N 
ATOM      4  HN  UNL     1      62.860  12.028   5.937  1.00  0.00     0.164 HD
HETATM    5  C   UNL     1      63.045  10.052   5.314  1.00  0.00     0.102 A 
HETATM    6  C   UNL     1      61.771  10.801   3.053  1.00  0.00     0.034 A 
HETATM    7  C   UNL     1      62.047  11.701   4.064  1.00  0.00     0.088 A 
ENDROOT
BRANCH   1   8
HETATM    8  C   UNL     1      63.329   7.686   4.677  1.00  0.00     0.106 C 
HETATM    9  S   UNL     1      62.544   6.590   5.679  1.00  0.00    -0.060 SA
HETATM   10  N   UNL     1      64.488   7.252   4.099  1.00  0.00    -0.389 N 
HETATM   11  H   UNL     1      64.994   7.849   3.501  1.00  0.00     0.157 HD
HETATM   12  H   UNL     1      64.818   6.342   4.280  1.00  0.00     0.157 HD
ENDBRANCH   1   8
BRANCH   2  13
HETATM   13  C   UNL     1      61.822   8.577   2.001  1.00  0.00     0.418 C 
HETATM   14  F   UNL     1      61.100   9.152   1.006  1.00  0.00    -0.166 F 
HETATM   15  F   UNL     1      62.949   8.106   1.395  1.00  0.00    -0.166 F 
HETATM   16  F   UNL     1      61.116   7.469   2.367  1.00  0.00    -0.166 F 
ENDBRANCH   2  13
TORSDOF 2
ENDMDL
MODEL 4
REMARK VINA RESULT:      -4.2      2.918      3.548
REMARK  2 active torsions:
REMARK  status: ('A' for Active; 'I' for Inactive)
REMARK    1  A    between atoms: C_1  and  C_4 
REMARK    2  A    between atoms: C_2  and  C_3 
ROOT
HETATM    1  C   UNL     1      62.878   8.096   2.971  1.00  0.00     0.032 A 
HETATM    2  C   UNL     1      62.727   9.270   3.730  1.00  0.00     0.063 A 
HETATM    3  N   UNL     1      61.892   9.237   1.035  1.00  0.00    -0.374 N 
ATOM      4  HN  UNL     1      61.599   9.212   0.059  1.00  0.00     0.164 HD
HETATM    5  C   UNL     1      62.444   8.155   1.638  1.00  0.00     0.102 A 
HETATM    6  C   UNL     1      62.151  10.404   3.105  1.00  0.00     0.034 A 
HETATM    7  C   UNL     1      61.752  10.341   1.784  1.00  0.00     0.088 A 
ENDROOT
BRANCH   1   8
HETATM    8  C   UNL     1      63.447   6.802   3.440  1.00  0.00     0.106 C 
HETATM    9  S   UNL     1      65.085   6.493   3.644  1.00  0.00    -0.060 SA
HETATM   10  N   UNL     1      62.596   5.787   3.774  1.00  0.00    -0.389 N 
HETATM   11  H   UNL     1      61.623   5.908   3.676  1.00  0.00     0.157 HD
HETATM   12  H   UNL     1      62.954   4.935   4.112  1.00  0.00     0.157 HD
ENDBRANCH   1   8
BRANCH   2  13
HETATM   13  C   UNL     1      63.097   9.466   5.174  1.00  0.00     0.418 C 
HETATM   14  F   UNL     1      62.639   8.541   6.055  1.00  0.00    -0.166 F 
HETATM   15  F   UNL     1      64.451   9.473   5.339  1.00  0.00    -0.166 F 
HETATM   16  F   UNL     1      62.666  10.667   5.655  1.00  0.00    -0.166 F 
ENDBRANCH   2  13
TORSDOF 2
ENDMDL
MODEL 5
REMARK VINA RESULT:      -4.2     12.851     13.838
REMARK  2 active torsions:
REMARK  status: ('A' for Active; 'I' for Inactive)
REMARK    1  A    between atoms: C_1  and  C_4 
REMARK    2  A    between atoms: C_2  and  C_3 
ROOT
HETATM    1  C   UNL     1      56.456   1.951  12.818  1.00  0.00     0.032 A 
HETATM    2  C   UNL     1      57.859   1.891  12.766  1.00  0.00     0.063 A 
HETATM    3  N   UNL     1      56.414   2.690  10.478  1.00  0.00    -0.374 N 
ATOM      4  HN  UNL     1      55.879   2.973   9.657  1.00  0.00     0.164 HD
HETATM    5  C   UNL     1      55.805   2.354  11.642  1.00  0.00     0.102 A 
HETATM    6  C   UNL     1      58.502   2.242  11.552  1.00  0.00     0.034 A 
HETATM    7  C   UNL     1      57.754   2.633  10.459  1.00  0.00     0.088 A 
ENDROOT
BRANCH   1   8
HETATM    8  C   UNL     1      55.596   1.636  13.992  1.00  0.00     0.106 C 
HETATM    9  S   UNL     1      55.193   0.085  14.496  1.00  0.00    -0.060 SA
HETATM   10  N   UNL     1      55.117   2.661  14.757  1.00  0.00    -0.389 N 
HETATM   11  H   UNL     1      55.320   3.594  14.513  1.00  0.00     0.157 HD
HETATM   12  H   UNL     1      54.570   2.469  15.553  1.00  0.00     0.157 HD
ENDBRANCH   1   8
BRANCH   2  13
HETATM   13  C   UNL     1      58.789   1.506  13.883  1.00  0.00     0.418 C 
HETATM   14  F   UNL     1      58.642   2.169  15.058  1.00  0.00    -0.166 F 
HETATM   15  F   UNL     1      58.656   0.186  14.202  1.00  0.00    -0.166 F 
HETATM   16  F   UNL     1      60.099   1.666  13.538  1.00  0.00    -0.166 F 
ENDBRANCH   2  13
TORSDOF 2
ENDMDL
MODEL 6
REMARK VINA RESULT:      -4.1      1.897      2.722
REMARK  2 active torsions:
REMARK  status: ('A' for Active; 'I' for Inactive)
REMARK    1  A    between atoms: C_1  and  C_4 
REMARK    2  A    between atoms: C_2  and  C_3 
ROOT
HETATM    1  C   UNL     1      63.059   7.899   2.891  1.00  0.00     0.032 A 
HETATM    2  C   UNL     1      63.081   8.970   3.801  1.00  0.00     0.063 A 
HETATM    3  N   UNL     1      64.955   6.878   4.067  1.00  0.00    -0.374 N 
ATOM      4  HN  UNL     1      65.624   6.113   4.155  1.00  0.00     0.164 HD
HETATM    5  C   UNL     1      64.018   6.894   3.088  1.00  0.00     0.102 A 
HETATM    6  C   UNL     1      64.059   8.960   4.827  1.00  0.00     0.034 A 
HETATM    7  C   UNL     1      64.960   7.917   4.916  1.00  0.00     0.088 A 
ENDROOT
BRANCH   1   8
HETATM    8  C   UNL     1      62.125   7.727   1.743  1.00  0.00     0.106 C 
HETATM    9  S   UNL     1      60.781   6.719   1.744  1.00  0.00    -0.060 SA
HETATM   10  N   UNL     1      62.329   8.459   0.608  1.00  0.00    -0.389 N 
HETATM   11  H   UNL     1      63.101   9.068   0.548  1.00  0.00     0.157 HD
HETATM   12  H   UNL     1      61.706   8.377  -0.149  1.00  0.00     0.157 HD
ENDBRANCH   1   8
BRANCH   2  13
HETATM   13  C   UNL     1      62.177  10.172   3.804  1.00  0.00     0.418 C 
HETATM   14  F   UNL     1      62.209  10.965   2.704  1.00  0.00    -0.166 F 
HETATM   15  F   UNL     1      60.871   9.805   3.938  1.00  0.00    -0.166 F 
HETATM   16  F   UNL     1      62.432  11.002   4.856  1.00  0.00    -0.166 F 
ENDBRANCH   2  13
TORSDOF 2
ENDMDL
MODEL 7
REMARK VINA RESULT:      -4.1      2.558      3.473
REMARK  2 active torsions:
REMARK  status: ('A' for Active; 'I' for Inactive)
REMARK    1  A    between atoms: C_1  and  C_4 
REMARK    2  A    between atoms: C_2  and  C_3 
ROOT
HETATM    1  C   UNL     1      62.920   8.933   3.850  1.00  0.00     0.032 A 
HETATM    2  C   UNL     1      63.536   7.761   3.380  1.00  0.00     0.063 A 
HETATM    3  N   UNL     1      64.547   9.037   5.684  1.00  0.00    -0.374 N 
ATOM      4  HN  UNL     1      64.905   9.511   6.513  1.00  0.00     0.164 HD
HETATM    5  C   UNL     1      63.479   9.514   4.999  1.00  0.00     0.102 A 
HETATM    6  C   UNL     1      64.654   7.257   4.092  1.00  0.00     0.034 A 
HETATM    7  C   UNL     1      65.111   7.912   5.219  1.00  0.00     0.088 A 
ENDROOT
BRANCH   1   8
HETATM    8  C   UNL     1      61.736   9.615   3.256  1.00  0.00     0.106 C 
HETATM    9  S   UNL     1      61.796  11.039   2.367  1.00  0.00    -0.060 SA
HETATM   10  N   UNL     1      60.504   9.042   3.395  1.00  0.00    -0.389 N 
HETATM   11  H   UNL     1      60.404   8.206   3.906  1.00  0.00     0.157 HD
HETATM   12  H   UNL     1      59.715   9.465   2.986  1.00  0.00     0.157 HD
ENDBRANCH   1   8
BRANCH   2  13
HETATM   13  C   UNL     1      63.128   6.942   2.187  1.00  0.00     0.418 C 
HETATM   14  F   UNL     1      62.856   7.620   1.043  1.00  0.00    -0.166 F 
HETATM   15  F   UNL     1      64.101   6.049   1.846  1.00  0.00    -0.166 F 
HETATM   16  F   UNL     1      62.017   6.192   2.435  1.00  0.00    -0.166 F 
ENDBRANCH   2  13
TORSDOF 2
ENDMDL
MODEL 8
REMARK VINA RESULT:      -4.1      2.550      3.245
REMARK  2 active torsions:
REMARK  status: ('A' for Active; 'I' for Inactive)
REMARK    1  A    between atoms: C_1  and  C_4 
REMARK    2  A    between atoms: C_2  and  C_3 
ROOT
HETATM    1  C   UNL     1      62.296   9.320   3.074  1.00  0.00     0.032 A 
HETATM    2  C   UNL     1      63.212   8.673   3.920  1.00  0.00     0.063 A 
HETATM    3  N   UNL     1      62.286  11.253   4.586  1.00  0.00    -0.374 N 
ATOM      4  HN  UNL     1      61.946  12.188   4.812  1.00  0.00     0.164 HD
HETATM    5  C   UNL     1      61.882  10.602   3.468  1.00  0.00     0.102 A 
HETATM    6  C   UNL     1      63.639   9.348   5.091  1.00  0.00     0.034 A 
HETATM    7  C   UNL     1      63.154  10.609   5.380  1.00  0.00     0.088 A 
ENDROOT
BRANCH   1   8
HETATM    8  C   UNL     1      61.720   8.783   1.810  1.00  0.00     0.106 C 
HETATM    9  S   UNL     1      60.347   7.820   1.716  1.00  0.00    -0.060 SA
HETATM   10  N   UNL     1      62.307   9.113   0.622  1.00  0.00    -0.389 N 
HETATM   11  H   UNL     1      63.115   9.676   0.612  1.00  0.00     0.157 HD
HETATM   12  H   UNL     1      61.923   8.789  -0.225  1.00  0.00     0.157 HD
ENDBRANCH   1   8
BRANCH   2  13
HETATM   13  C   UNL     1      63.798   7.301   3.735  1.00  0.00     0.418 C 
HETATM   14  F   UNL     1      63.999   6.887   2.459  1.00  0.00    -0.166 F 
HETATM   15  F   UNL     1      65.018   7.200   4.337  1.00  0.00    -0.166 F 
HETATM   16  F   UNL     1      63.029   6.333   4.312  1.00  0.00    -0.166 F 
ENDBRANCH   2  13
TORSDOF 2
ENDMDL
MODEL 9
REMARK VINA RESULT:      -3.9      2.201      3.489
REMARK  2 active torsions:
REMARK  status: ('A' for Active; 'I' for Inactive)
REMARK    1  A    between atoms: C_1  and  C_4 
REMARK    2  A    between atoms: C_2  and  C_3 
ROOT
HETATM    1  C   UNL     1      62.988   7.777   2.899  1.00  0.00     0.032 A 
HETATM    2  C   UNL     1      62.376   8.935   2.389  1.00  0.00     0.063 A 
HETATM    3  N   UNL     1      62.933   6.776   0.660  1.00  0.00    -0.374 N 
ATOM      4  HN  UNL     1      63.144   5.991   0.045  1.00  0.00     0.164 HD
HETATM    5  C   UNL     1      63.237   6.746   1.980  1.00  0.00     0.102 A 
HETATM    6  C   UNL     1      62.056   8.973   1.008  1.00  0.00     0.034 A 
HETATM    7  C   UNL     1      62.342   7.890   0.200  1.00  0.00     0.088 A 
ENDROOT
BRANCH   1   8
HETATM    8  C   UNL     1      63.393   7.536   4.312  1.00  0.00     0.106 C 
HETATM    9  S   UNL     1      64.882   7.955   4.968  1.00  0.00    -0.060 SA
HETATM   10  N   UNL     1      62.495   6.968   5.170  1.00  0.00    -0.389 N 
HETATM   11  H   UNL     1      61.605   6.700   4.845  1.00  0.00     0.157 HD
HETATM   12  H   UNL     1      62.737   6.826   6.114  1.00  0.00     0.157 HD
ENDBRANCH   1   8
BRANCH   2  13
HETATM   13  C   UNL     1      61.993  10.168   3.158  1.00  0.00     0.418 C 
HETATM   14  F   UNL     1      62.936  10.697   3.978  1.00  0.00    -0.166 F 
HETATM   15  F   UNL     1      61.644  11.185   2.318  1.00  0.00    -0.166 F 
HETATM   16  F   UNL     1      60.902   9.960   3.950  1.00  0.00    -0.166 F 
ENDBRANCH   2  13
TORSDOF 2
ENDMDL
