MODEL 1
REMARK VINA RESULT:      -3.9      0.000      0.000
REMARK  3 active torsions:
REMARK  status: ('A' for Active; 'I' for Inactive)
REMARK    1  A    between atoms: C_2  and  C_8 
REMARK    2  A    between atoms: C_3  and  C_8 
REMARK    3  A    between atoms: C_3  and  O_9 
ROOT
HETATM    1  S   UNL     1      66.228   7.440   6.043  1.00  0.00    -0.113 SA
HETATM    2  C   UNL     1      63.992   8.467   5.253  1.00  0.00    -0.042 A 
HETATM    3  C   UNL     1      65.363   8.579   5.103  1.00  0.00     0.057 A 
HETATM    4  C   UNL     1      64.783   6.789   6.680  1.00  0.00     0.050 A 
HETATM    5  C   UNL     1      63.667   7.427   6.186  1.00  0.00     0.015 A 
ENDROOT
BRANCH   2   6
HETATM    6  C   UNL     1      62.980   9.317   4.549  1.00  0.00     0.150 C 
BRANCH   6   7
HETATM    7  C   UNL     1      62.831  10.674   5.192  1.00  0.00     0.262 C 
HETATM    8  O   UNL     1      63.363  10.994   6.249  1.00  0.00    -0.265 OA
BRANCH   7   9
HETATM    9  O   UNL     1      62.033  11.491   4.448  1.00  0.00    -0.326 OA
HETATM   10  C   UNL     1      61.859  11.057   3.097  1.00  0.00     0.213 C 
ENDBRANCH   7   9
ENDBRANCH   6   7
ENDBRANCH   2   6
TORSDOF 3
ENDMDL
MODEL 2
REMARK VINA RESULT:      -3.9      3.608      4.883
REMARK  3 active torsions:
REMARK  status: ('A' for Active; 'I' for Inactive)
REMARK    1  A    between atoms: C_2  and  C_8 
REMARK    2  A    between atoms: C_3  and  C_8 
REMARK    3  A    between atoms: C_3  and  O_9 
ROOT
HETATM    1  S   UNL     1      59.306   7.109   2.263  1.00  0.00    -0.113 SA
HETATM    2  C   UNL     1      61.276   8.780   2.346  1.00  0.00    -0.042 A 
HETATM    3  C   UNL     1      60.481   7.983   3.150  1.00  0.00     0.057 A 
HETATM    4  C   UNL     1      59.830   7.797   0.790  1.00  0.00     0.050 A 
HETATM    5  C   UNL     1      60.877   8.673   0.972  1.00  0.00     0.015 A 
ENDROOT
BRANCH   2   6
HETATM    6  C   UNL     1      62.394   9.647   2.836  1.00  0.00     0.150 C 
BRANCH   6   7
HETATM    7  C   UNL     1      61.982  11.093   2.956  1.00  0.00     0.262 C 
HETATM    8  O   UNL     1      61.875  11.858   2.003  1.00  0.00    -0.265 OA
BRANCH   7   9
HETATM    9  O   UNL     1      61.744  11.436   4.254  1.00  0.00    -0.326 OA
HETATM   10  C   UNL     1      62.704  10.912   5.176  1.00  0.00     0.213 C 
ENDBRANCH   7   9
ENDBRANCH   6   7
ENDBRANCH   2   6
TORSDOF 3
ENDMDL
MODEL 3
REMARK VINA RESULT:      -3.8      2.953      4.551
REMARK  3 active torsions:
REMARK  status: ('A' for Active; 'I' for Inactive)
REMARK    1  A    between atoms: C_2  and  C_8 
REMARK    2  A    between atoms: C_3  and  C_8 
REMARK    3  A    between atoms: C_3  and  O_9 
ROOT
HETATM    1  S   UNL     1      61.706  11.303   2.185  1.00  0.00    -0.113 SA
HETATM    2  C   UNL     1      62.529   9.385   3.709  1.00  0.00    -0.042 A 
HETATM    3  C   UNL     1      62.157  10.717   3.729  1.00  0.00     0.057 A 
HETATM    4  C   UNL     1      62.020   9.788   1.461  1.00  0.00     0.050 A 
HETATM    5  C   UNL     1      62.458   8.858   2.377  1.00  0.00     0.015 A 
ENDROOT
BRANCH   2   6
HETATM    6  C   UNL     1      62.959   8.597   4.907  1.00  0.00     0.150 C 
BRANCH   6   7
HETATM    7  C   UNL     1      64.452   8.659   5.123  1.00  0.00     0.262 C 
HETATM    8  O   UNL     1      65.011   9.508   5.808  1.00  0.00    -0.265 OA
BRANCH   7   9
HETATM    9  O   UNL     1      65.091   7.653   4.462  1.00  0.00    -0.326 OA
HETATM   10  C   UNL     1      65.088   6.406   5.162  1.00  0.00     0.213 C 
ENDBRANCH   7   9
ENDBRANCH   6   7
ENDBRANCH   2   6
TORSDOF 3
ENDMDL
MODEL 4
REMARK VINA RESULT:      -3.8      2.692      4.409
REMARK  3 active torsions:
REMARK  status: ('A' for Active; 'I' for Inactive)
REMARK    1  A    between atoms: C_2  and  C_8 
REMARK    2  A    between atoms: C_3  and  C_8 
REMARK    3  A    between atoms: C_3  and  O_9 
ROOT
HETATM    1  S   UNL     1      62.080   9.057   0.906  1.00  0.00    -0.113 SA
HETATM    2  C   UNL     1      62.558   9.042   3.445  1.00  0.00    -0.042 A 
HETATM    3  C   UNL     1      62.615   8.246   2.315  1.00  0.00     0.057 A 
HETATM    4  C   UNL     1      61.745  10.481   1.788  1.00  0.00     0.050 A 
HETATM    5  C   UNL     1      62.035  10.339   3.127  1.00  0.00     0.015 A 
ENDROOT
BRANCH   2   6
HETATM    6  C   UNL     1      62.972   8.612   4.819  1.00  0.00     0.150 C 
BRANCH   6   7
HETATM    7  C   UNL     1      64.237   9.298   5.272  1.00  0.00     0.262 C 
HETATM    8  O   UNL     1      64.260  10.366   5.875  1.00  0.00    -0.265 OA
BRANCH   7   9
HETATM    9  O   UNL     1      65.343   8.579   4.928  1.00  0.00    -0.326 OA
HETATM   10  C   UNL     1      65.643   7.511   5.830  1.00  0.00     0.213 C 
ENDBRANCH   7   9
ENDBRANCH   6   7
ENDBRANCH   2   6
TORSDOF 3
ENDMDL
MODEL 5
REMARK VINA RESULT:      -3.8      2.977      4.486
REMARK  3 active torsions:
REMARK  status: ('A' for Active; 'I' for Inactive)
REMARK    1  A    between atoms: C_2  and  C_8 
REMARK    2  A    between atoms: C_3  and  C_8 
REMARK    3  A    between atoms: C_3  and  O_9 
ROOT
HETATM    1  S   UNL     1      61.807   9.386   3.246  1.00  0.00    -0.113 SA
HETATM    2  C   UNL     1      63.964   8.570   4.410  1.00  0.00    -0.042 A 
HETATM    3  C   UNL     1      63.086   8.258   3.388  1.00  0.00     0.057 A 
HETATM    4  C   UNL     1      62.396  10.301   4.562  1.00  0.00     0.050 A 
HETATM    5  C   UNL     1      63.543   9.757   5.097  1.00  0.00     0.015 A 
ENDROOT
BRANCH   2   6
HETATM    6  C   UNL     1      65.183   7.776   4.766  1.00  0.00     0.150 C 
BRANCH   6   7
HETATM    7  C   UNL     1      65.612   8.002   6.195  1.00  0.00     0.262 C 
HETATM    8  O   UNL     1      66.435   8.843   6.539  1.00  0.00    -0.265 OA
BRANCH   7   9
HETATM    9  O   UNL     1      64.969   7.154   7.046  1.00  0.00    -0.326 OA
HETATM   10  C   UNL     1      65.847   6.413   7.899  1.00  0.00     0.213 C 
ENDBRANCH   7   9
ENDBRANCH   6   7
ENDBRANCH   2   6
TORSDOF 3
ENDMDL
MODEL 6
REMARK VINA RESULT:      -3.5      3.183      4.274
REMARK  3 active torsions:
REMARK  status: ('A' for Active; 'I' for Inactive)
REMARK    1  A    between atoms: C_2  and  C_8 
REMARK    2  A    between atoms: C_3  and  C_8 
REMARK    3  A    between atoms: C_3  and  O_9 
ROOT
HETATM    1  S   UNL     1      67.994   4.654   8.458  1.00  0.00    -0.113 SA
HETATM    2  C   UNL     1      67.282   6.591   6.903  1.00  0.00    -0.042 A 
HETATM    3  C   UNL     1      67.896   5.352   6.898  1.00  0.00     0.057 A 
HETATM    4  C   UNL     1      67.232   6.008   9.169  1.00  0.00     0.050 A 
HETATM    5  C   UNL     1      66.912   6.969   8.236  1.00  0.00     0.015 A 
ENDROOT
BRANCH   2   6
HETATM    6  C   UNL     1      67.043   7.435   5.689  1.00  0.00     0.150 C 
BRANCH   6   7
HETATM    7  C   UNL     1      65.651   8.018   5.666  1.00  0.00     0.262 C 
HETATM    8  O   UNL     1      65.399   9.199   5.878  1.00  0.00    -0.265 OA
BRANCH   7   9
HETATM    9  O   UNL     1      64.719   7.066   5.380  1.00  0.00    -0.326 OA
HETATM   10  C   UNL     1      63.613   7.048   6.287  1.00  0.00     0.213 C 
ENDBRANCH   7   9
ENDBRANCH   6   7
ENDBRANCH   2   6
TORSDOF 3
ENDMDL
MODEL 7
REMARK VINA RESULT:      -3.4      3.017      4.662
REMARK  3 active torsions:
REMARK  status: ('A' for Active; 'I' for Inactive)
REMARK    1  A    between atoms: C_2  and  C_8 
REMARK    2  A    between atoms: C_3  and  C_8 
REMARK    3  A    between atoms: C_3  and  O_9 
ROOT
HETATM    1  S   UNL     1      61.684   9.226   3.298  1.00  0.00    -0.113 SA
HETATM    2  C   UNL     1      63.902   8.433   4.358  1.00  0.00    -0.042 A 
HETATM    3  C   UNL     1      62.945   9.427   4.438  1.00  0.00     0.057 A 
HETATM    4  C   UNL     1      62.408   7.814   2.666  1.00  0.00     0.050 A 
HETATM    5  C   UNL     1      63.585   7.505   3.310  1.00  0.00     0.015 A 
ENDROOT
BRANCH   2   6
HETATM    6  C   UNL     1      65.114   8.336   5.233  1.00  0.00     0.150 C 
BRANCH   6   7
HETATM    7  C   UNL     1      64.943   7.315   6.331  1.00  0.00     0.262 C 
HETATM    8  O   UNL     1      63.917   7.180   6.988  1.00  0.00    -0.265 OA
BRANCH   7   9
HETATM    9  O   UNL     1      66.071   6.568   6.494  1.00  0.00    -0.326 OA
HETATM   10  C   UNL     1      66.703   6.743   7.765  1.00  0.00     0.213 C 
ENDBRANCH   7   9
ENDBRANCH   6   7
ENDBRANCH   2   6
TORSDOF 3
ENDMDL
MODEL 8
REMARK VINA RESULT:      -3.4      2.142      2.582
REMARK  3 active torsions:
REMARK  status: ('A' for Active; 'I' for Inactive)
REMARK    1  A    between atoms: C_2  and  C_8 
REMARK    2  A    between atoms: C_3  and  C_8 
REMARK    3  A    between atoms: C_3  and  O_9 
ROOT
HETATM    1  S   UNL     1      66.991   5.826   4.382  1.00  0.00    -0.113 SA
HETATM    2  C   UNL     1      65.526   7.853   5.033  1.00  0.00    -0.042 A 
HETATM    3  C   UNL     1      65.556   6.743   4.208  1.00  0.00     0.057 A 
HETATM    4  C   UNL     1      67.605   6.910   5.551  1.00  0.00     0.050 A 
HETATM    5  C   UNL     1      66.734   7.946   5.802  1.00  0.00     0.015 A 
ENDROOT
BRANCH   2   6
HETATM    6  C   UNL     1      64.397   8.833   5.111  1.00  0.00     0.150 C 
BRANCH   6   7
HETATM    7  C   UNL     1      63.126   8.199   5.621  1.00  0.00     0.262 C 
HETATM    8  O   UNL     1      62.988   7.758   6.757  1.00  0.00    -0.265 OA
BRANCH   7   9
HETATM    9  O   UNL     1      62.160   8.181   4.660  1.00  0.00    -0.326 OA
HETATM   10  C   UNL     1      62.272   9.241   3.707  1.00  0.00     0.213 C 
ENDBRANCH   7   9
ENDBRANCH   6   7
ENDBRANCH   2   6
TORSDOF 3
ENDMDL
MODEL 9
REMARK VINA RESULT:      -3.4      4.050      5.202
REMARK  3 active torsions:
REMARK  status: ('A' for Active; 'I' for Inactive)
REMARK    1  A    between atoms: C_2  and  C_8 
REMARK    2  A    between atoms: C_3  and  C_8 
REMARK    3  A    between atoms: C_3  and  O_9 
ROOT
HETATM    1  S   UNL     1      67.059   3.624   4.161  1.00  0.00    -0.113 SA
HETATM    2  C   UNL     1      67.320   5.944   5.267  1.00  0.00    -0.042 A 
HETATM    3  C   UNL     1      67.430   4.590   5.524  1.00  0.00     0.057 A 
HETATM    4  C   UNL     1      66.726   5.002   3.209  1.00  0.00     0.050 A 
HETATM    5  C   UNL     1      66.894   6.171   3.916  1.00  0.00     0.015 A 
ENDROOT
BRANCH   2   6
HETATM    6  C   UNL     1      67.593   7.031   6.260  1.00  0.00     0.150 C 
BRANCH   6   7
HETATM    7  C   UNL     1      66.336   7.760   6.667  1.00  0.00     0.262 C 
HETATM    8  O   UNL     1      66.019   8.868   6.248  1.00  0.00    -0.265 OA
BRANCH   7   9
HETATM    9  O   UNL     1      65.603   7.029   7.554  1.00  0.00    -0.326 OA
HETATM   10  C   UNL     1      66.355   6.556   8.675  1.00  0.00     0.213 C 
ENDBRANCH   7   9
ENDBRANCH   6   7
ENDBRANCH   2   6
TORSDOF 3
ENDMDL
