MODEL 1
REMARK VINA RESULT:      -5.9      0.000      0.000
REMARK  2 active torsions:
REMARK  status: ('A' for Active; 'I' for Inactive)
REMARK    1  A    between atoms: C_3  and  C_5 
REMARK    2  A    between atoms: C_4  and  C_9 
ROOT
HETATM    1  N   UNK     1      64.785   7.310   6.657  1.00  0.00    -0.344 N 
ATOM      2  HN  UNK     1      63.886   7.232   7.133  1.00  0.00     0.167 HD
HETATM    3  C   UNK     1      64.974   7.966   5.532  1.00  0.00     0.086 A 
HETATM    4  C   UNK     1      65.967   6.734   7.116  1.00  0.00     0.117 A 
HETATM    5  S   UNK     1      66.589   7.864   4.923  1.00  0.00    -0.081 SA
HETATM    6  C   UNK     1      67.041   6.906   6.267  1.00  0.00     0.088 A 
ENDROOT
BRANCH   3   7
HETATM    7  C   UNK     1      63.929   8.730   4.814  1.00  0.00     0.021 A 
HETATM    8  C   UNK     1      63.400   8.302   3.573  1.00  0.00     0.068 A 
HETATM    9  C   UNK     1      62.445   9.095   2.908  1.00  0.00     0.056 A 
HETATM   10 CL   UNK     1      63.863   6.780   2.865  1.00  0.00    -0.082 Cl
HETATM   11 CL   UNK     1      61.765   8.657   1.375  1.00  0.00    -0.083 Cl
HETATM   12  C   UNK     1      61.996  10.293   3.470  1.00  0.00     0.026 A 
HETATM   13  C   UNK     1      62.497  10.715   4.696  1.00  0.00     0.003 A 
HETATM   14  C   UNK     1      63.457   9.947   5.354  1.00  0.00     0.016 A 
ENDBRANCH   3   7
BRANCH   4  15
HETATM   15  C   UNK     1      66.051   6.021   8.386  1.00  0.00     0.227 C 
HETATM   16  O   UNK     1      66.305   6.535   9.469  1.00  0.00    -0.643 OA
HETATM   17  O   UNK     1      65.809   4.693   8.311  1.00  0.00    -0.643 OA
ENDBRANCH   4  15
TORSDOF 2
ENDMDL
MODEL 2
REMARK VINA RESULT:      -5.5      2.270      2.958
REMARK  2 active torsions:
REMARK  status: ('A' for Active; 'I' for Inactive)
REMARK    1  A    between atoms: C_3  and  C_5 
REMARK    2  A    between atoms: C_4  and  C_9 
ROOT
HETATM    1  N   UNK     1      64.599   7.885   5.216  1.00  0.00    -0.344 N 
ATOM      2  HN  UNK     1      65.225   8.638   4.930  1.00  0.00     0.167 HD
HETATM    3  C   UNK     1      63.470   7.587   4.608  1.00  0.00     0.086 A 
HETATM    4  C   UNK     1      64.832   7.042   6.300  1.00  0.00     0.117 A 
HETATM    5  S   UNK     1      62.584   6.307   5.360  1.00  0.00    -0.081 SA
HETATM    6  C   UNK     1      63.809   6.148   6.544  1.00  0.00     0.088 A 
ENDROOT
BRANCH   3   7
HETATM    7  C   UNK     1      62.962   8.262   3.393  1.00  0.00     0.021 A 
HETATM    8  C   UNK     1      62.580   9.624   3.390  1.00  0.00     0.068 A 
HETATM    9  C   UNK     1      62.053  10.202   2.217  1.00  0.00     0.056 A 
HETATM   10 CL   UNK     1      62.795  10.631   4.794  1.00  0.00    -0.082 Cl
HETATM   11 CL   UNK     1      61.538  11.855   2.136  1.00  0.00    -0.083 Cl
HETATM   12  C   UNK     1      61.923   9.449   1.048  1.00  0.00     0.026 A 
HETATM   13  C   UNK     1      62.310   8.115   1.034  1.00  0.00     0.003 A 
HETATM   14  C   UNK     1      62.814   7.527   2.194  1.00  0.00     0.016 A 
ENDBRANCH   3   7
BRANCH   4  15
HETATM   15  C   UNK     1      66.053   7.104   7.095  1.00  0.00     0.227 C 
HETATM   16  O   UNK     1      66.558   6.158   7.687  1.00  0.00    -0.643 OA
HETATM   17  O   UNK     1      66.643   8.320   7.139  1.00  0.00    -0.643 OA
ENDBRANCH   4  15
TORSDOF 2
ENDMDL
MODEL 3
REMARK VINA RESULT:      -5.4      3.491      5.736
REMARK  2 active torsions:
REMARK  status: ('A' for Active; 'I' for Inactive)
REMARK    1  A    between atoms: C_3  and  C_5 
REMARK    2  A    between atoms: C_4  and  C_9 
ROOT
HETATM    1  N   UNK     1      64.246   9.173   5.404  1.00  0.00    -0.344 N 
ATOM      2  HN  UNK     1      64.809   9.508   6.186  1.00  0.00     0.167 HD
HETATM    3  C   UNK     1      64.416   8.008   4.814  1.00  0.00     0.086 A 
HETATM    4  C   UNK     1      63.202   9.890   4.825  1.00  0.00     0.117 A 
HETATM    5  S   UNK     1      63.361   7.742   3.470  1.00  0.00    -0.081 SA
HETATM    6  C   UNK     1      62.636   9.270   3.730  1.00  0.00     0.088 A 
ENDROOT
BRANCH   3   7
HETATM    7  C   UNK     1      65.409   6.991   5.223  1.00  0.00     0.021 A 
HETATM    8  C   UNK     1      65.044   5.820   5.928  1.00  0.00     0.068 A 
HETATM    9  C   UNK     1      66.038   4.909   6.339  1.00  0.00     0.056 A 
HETATM   10 CL   UNK     1      63.376   5.442   6.260  1.00  0.00    -0.082 Cl
HETATM   11 CL   UNK     1      65.678   3.465   7.227  1.00  0.00    -0.083 Cl
HETATM   12  C   UNK     1      67.383   5.139   6.039  1.00  0.00     0.026 A 
HETATM   13  C   UNK     1      67.752   6.277   5.333  1.00  0.00     0.003 A 
HETATM   14  C   UNK     1      66.779   7.195   4.938  1.00  0.00     0.016 A 
ENDBRANCH   3   7
BRANCH   4  15
HETATM   15  C   UNK     1      62.752  11.177   5.344  1.00  0.00     0.227 C 
HETATM   16  O   UNK     1      62.021  11.960   4.749  1.00  0.00    -0.643 OA
HETATM   17  O   UNK     1      63.192  11.475   6.587  1.00  0.00    -0.643 OA
ENDBRANCH   4  15
TORSDOF 2
ENDMDL
MODEL 4
REMARK VINA RESULT:      -5.3      1.751      1.915
REMARK  2 active torsions:
REMARK  status: ('A' for Active; 'I' for Inactive)
REMARK    1  A    between atoms: C_3  and  C_5 
REMARK    2  A    between atoms: C_4  and  C_9 
ROOT
HETATM    1  N   UNK     1      65.471   7.350   5.304  1.00  0.00    -0.344 N 
ATOM      2  HN  UNK     1      66.100   8.003   4.837  1.00  0.00     0.167 HD
HETATM    3  C   UNK     1      64.159   7.455   5.303  1.00  0.00     0.086 A 
HETATM    4  C   UNK     1      65.893   6.235   6.024  1.00  0.00     0.117 A 
HETATM    5  S   UNK     1      63.358   6.241   6.238  1.00  0.00    -0.081 SA
HETATM    6  C   UNK     1      64.868   5.541   6.634  1.00  0.00     0.088 A 
ENDROOT
BRANCH   3   7
HETATM    7  C   UNK     1      63.395   8.500   4.587  1.00  0.00     0.021 A 
HETATM    8  C   UNK     1      62.977   8.344   3.244  1.00  0.00     0.068 A 
HETATM    9  C   UNK     1      62.297   9.393   2.594  1.00  0.00     0.056 A 
HETATM   10 CL   UNK     1      63.234   6.853   2.381  1.00  0.00    -0.082 Cl
HETATM   11 CL   UNK     1      61.773   9.292   0.946  1.00  0.00    -0.083 Cl
HETATM   12  C   UNK     1      62.012  10.583   3.269  1.00  0.00     0.026 A 
HETATM   13  C   UNK     1      62.404  10.742   4.592  1.00  0.00     0.003 A 
HETATM   14  C   UNK     1      63.094   9.717   5.239  1.00  0.00     0.016 A 
ENDBRANCH   3   7
BRANCH   4  15
HETATM   15  C   UNK     1      67.296   5.843   6.112  1.00  0.00     0.227 C 
HETATM   16  O   UNK     1      68.075   6.203   6.986  1.00  0.00    -0.643 OA
HETATM   17  O   UNK     1      67.715   5.004   5.138  1.00  0.00    -0.643 OA
ENDBRANCH   4  15
TORSDOF 2
ENDMDL
MODEL 5
REMARK VINA RESULT:      -5.2      1.543      2.124
REMARK  2 active torsions:
REMARK  status: ('A' for Active; 'I' for Inactive)
REMARK    1  A    between atoms: C_3  and  C_5 
REMARK    2  A    between atoms: C_4  and  C_9 
ROOT
HETATM    1  N   UNK     1      65.119   6.689   6.452  1.00  0.00    -0.344 N 
ATOM      2  HN  UNK     1      64.179   6.447   6.767  1.00  0.00     0.167 HD
HETATM    3  C   UNK     1      65.393   7.226   5.282  1.00  0.00     0.086 A 
HETATM    4  C   UNK     1      66.273   6.494   7.207  1.00  0.00     0.117 A 
HETATM    5  S   UNK     1      67.082   7.462   4.998  1.00  0.00    -0.081 SA
HETATM    6  C   UNK     1      67.438   6.825   6.546  1.00  0.00     0.088 A 
ENDROOT
BRANCH   3   7
HETATM    7  C   UNK     1      64.384   7.605   4.269  1.00  0.00     0.021 A 
HETATM    8  C   UNK     1      63.671   8.825   4.333  1.00  0.00     0.068 A 
HETATM    9  C   UNK     1      62.683   9.112   3.369  1.00  0.00     0.056 A 
HETATM   10 CL   UNK     1      64.020  10.019   5.552  1.00  0.00    -0.082 Cl
HETATM   11 CL   UNK     1      61.748  10.570   3.390  1.00  0.00    -0.083 Cl
HETATM   12  C   UNK     1      62.414   8.211   2.335  1.00  0.00     0.026 A 
HETATM   13  C   UNK     1      63.120   7.017   2.252  1.00  0.00     0.003 A 
HETATM   14  C   UNK     1      64.086   6.715   3.212  1.00  0.00     0.016 A 
ENDBRANCH   3   7
BRANCH   4  15
HETATM   15  C   UNK     1      66.239   5.989   8.576  1.00  0.00     0.227 C 
HETATM   16  O   UNK     1      66.245   6.685   9.584  1.00  0.00    -0.643 OA
HETATM   17  O   UNK     1      66.184   4.643   8.685  1.00  0.00    -0.643 OA
ENDBRANCH   4  15
TORSDOF 2
ENDMDL
MODEL 6
REMARK VINA RESULT:      -5.0      3.784      5.988
REMARK  2 active torsions:
REMARK  status: ('A' for Active; 'I' for Inactive)
REMARK    1  A    between atoms: C_3  and  C_5 
REMARK    2  A    between atoms: C_4  and  C_9 
ROOT
HETATM    1  N   UNK     1      63.891   8.621   5.828  1.00  0.00    -0.344 N 
ATOM      2  HN  UNK     1      64.236   8.919   6.741  1.00  0.00     0.167 HD
HETATM    3  C   UNK     1      64.044   7.408   5.339  1.00  0.00     0.086 A 
HETATM    4  C   UNK     1      63.201   9.445   4.943  1.00  0.00     0.117 A 
HETATM    5  S   UNK     1      63.418   7.214   3.739  1.00  0.00    -0.081 SA
HETATM    6  C   UNK     1      62.903   8.846   3.736  1.00  0.00     0.088 A 
ENDROOT
BRANCH   3   7
HETATM    7  C   UNK     1      64.689   6.284   6.053  1.00  0.00     0.021 A 
HETATM    8  C   UNK     1      65.941   6.419   6.698  1.00  0.00     0.068 A 
HETATM    9  C   UNK     1      66.534   5.302   7.318  1.00  0.00     0.056 A 
HETATM   10 CL   UNK     1      66.752   7.957   6.795  1.00  0.00    -0.082 Cl
HETATM   11 CL   UNK     1      68.075   5.375   8.109  1.00  0.00    -0.083 Cl
HETATM   12  C   UNK     1      65.890   4.062   7.321  1.00  0.00     0.026 A 
HETATM   13  C   UNK     1      64.653   3.921   6.704  1.00  0.00     0.003 A 
HETATM   14  C   UNK     1      64.065   5.016   6.071  1.00  0.00     0.016 A 
ENDBRANCH   3   7
BRANCH   4  15
HETATM   15  C   UNK     1      62.827  10.815   5.276  1.00  0.00     0.227 C 
HETATM   16  O   UNK     1      63.159  11.409   6.295  1.00  0.00    -0.643 OA
HETATM   17  O   UNK     1      62.066  11.439   4.348  1.00  0.00    -0.643 OA
ENDBRANCH   4  15
TORSDOF 2
ENDMDL
MODEL 7
REMARK VINA RESULT:      -4.9      9.979     11.338
REMARK  2 active torsions:
REMARK  status: ('A' for Active; 'I' for Inactive)
REMARK    1  A    between atoms: C_3  and  C_5 
REMARK    2  A    between atoms: C_4  and  C_9 
ROOT
HETATM    1  N   UNK     1      58.646   4.227  10.405  1.00  0.00    -0.344 N 
ATOM      2  HN  UNK     1      58.890   4.829  11.192  1.00  0.00     0.167 HD
HETATM    3  C   UNK     1      58.241   2.980  10.524  1.00  0.00     0.086 A 
HETATM    4  C   UNK     1      58.702   4.620   9.071  1.00  0.00     0.117 A 
HETATM    5  S   UNK     1      57.969   2.184   9.013  1.00  0.00    -0.081 SA
HETATM    6  C   UNK     1      58.402   3.612   8.176  1.00  0.00     0.088 A 
ENDROOT
BRANCH   3   7
HETATM    7  C   UNK     1      58.028   2.279  11.810  1.00  0.00     0.021 A 
HETATM    8  C   UNK     1      56.736   2.051  12.340  1.00  0.00     0.068 A 
HETATM    9  C   UNK     1      56.594   1.424  13.594  1.00  0.00     0.056 A 
HETATM   10 CL   UNK     1      55.301   2.478  11.451  1.00  0.00    -0.082 Cl
HETATM   11 CL   UNK     1      55.050   1.129  14.325  1.00  0.00    -0.083 Cl
HETATM   12  C   UNK     1      57.716   1.006  14.314  1.00  0.00     0.026 A 
HETATM   13  C   UNK     1      58.989   1.210  13.796  1.00  0.00     0.003 A 
HETATM   14  C   UNK     1      59.142   1.847  12.564  1.00  0.00     0.016 A 
ENDBRANCH   3   7
BRANCH   4  15
HETATM   15  C   UNK     1      59.042   5.980   8.667  1.00  0.00     0.227 C 
HETATM   16  O   UNK     1      59.948   6.282   7.901  1.00  0.00    -0.643 OA
HETATM   17  O   UNK     1      58.256   6.944   9.197  1.00  0.00    -0.643 OA
ENDBRANCH   4  15
TORSDOF 2
ENDMDL
MODEL 8
REMARK VINA RESULT:      -4.8      5.468      6.667
REMARK  2 active torsions:
REMARK  status: ('A' for Active; 'I' for Inactive)
REMARK    1  A    between atoms: C_3  and  C_5 
REMARK    2  A    between atoms: C_4  and  C_9 
ROOT
HETATM    1  N   UNK     1      60.558   9.181   3.576  1.00  0.00    -0.344 N 
ATOM      2  HN  UNK     1      59.790   9.730   3.961  1.00  0.00     0.167 HD
HETATM    3  C   UNK     1      60.569   7.866   3.509  1.00  0.00     0.086 A 
HETATM    4  C   UNK     1      61.728   9.727   3.054  1.00  0.00     0.117 A 
HETATM    5  S   UNK     1      62.035   7.208   2.871  1.00  0.00    -0.081 SA
HETATM    6  C   UNK     1      62.659   8.788   2.662  1.00  0.00     0.088 A 
ENDROOT
BRANCH   3   7
HETATM    7  C   UNK     1      59.455   6.989   3.933  1.00  0.00     0.021 A 
HETATM    8  C   UNK     1      58.267   6.857   3.175  1.00  0.00     0.068 A 
HETATM    9  C   UNK     1      57.217   6.048   3.652  1.00  0.00     0.056 A 
HETATM   10 CL   UNK     1      58.087   7.633   1.626  1.00  0.00    -0.082 Cl
HETATM   11 CL   UNK     1      55.721   5.853   2.799  1.00  0.00    -0.083 Cl
HETATM   12  C   UNK     1      57.343   5.355   4.859  1.00  0.00     0.026 A 
HETATM   13  C   UNK     1      58.511   5.464   5.604  1.00  0.00     0.003 A 
HETATM   14  C   UNK     1      59.549   6.278   5.150  1.00  0.00     0.016 A 
ENDBRANCH   3   7
BRANCH   4  15
HETATM   15  C   UNK     1      61.936  11.166   2.934  1.00  0.00     0.227 C 
HETATM   16  O   UNK     1      62.013  11.781   1.877  1.00  0.00    -0.643 OA
HETATM   17  O   UNK     1      62.031  11.829   4.109  1.00  0.00    -0.643 OA
ENDBRANCH   4  15
TORSDOF 2
ENDMDL
MODEL 9
REMARK VINA RESULT:      -4.8      5.513      6.723
REMARK  2 active torsions:
REMARK  status: ('A' for Active; 'I' for Inactive)
REMARK    1  A    between atoms: C_3  and  C_5 
REMARK    2  A    between atoms: C_4  and  C_9 
ROOT
HETATM    1  N   UNK     1      60.578   9.253   3.648  1.00  0.00    -0.344 N 
ATOM      2  HN  UNK     1      59.932   9.800   4.218  1.00  0.00     0.167 HD
HETATM    3  C   UNK     1      60.495   7.951   3.477  1.00  0.00     0.086 A 
HETATM    4  C   UNK     1      61.659   9.791   2.955  1.00  0.00     0.117 A 
HETATM    5  S   UNK     1      61.771   7.287   2.517  1.00  0.00    -0.081 SA
HETATM    6  C   UNK     1      62.440   8.849   2.317  1.00  0.00     0.088 A 
ENDROOT
BRANCH   3   7
HETATM    7  C   UNK     1      59.430   7.090   4.038  1.00  0.00     0.021 A 
HETATM    8  C   UNK     1      59.657   6.228   5.136  1.00  0.00     0.068 A 
HETATM    9  C   UNK     1      58.621   5.392   5.598  1.00  0.00     0.056 A 
HETATM   10 CL   UNK     1      61.182   6.209   5.977  1.00  0.00    -0.082 Cl
HETATM   11 CL   UNK     1      58.823   4.289   6.919  1.00  0.00    -0.083 Cl
HETATM   12  C   UNK     1      57.360   5.420   4.994  1.00  0.00     0.026 A 
HETATM   13  C   UNK     1      57.121   6.274   3.926  1.00  0.00     0.003 A 
HETATM   14  C   UNK     1      58.145   7.092   3.449  1.00  0.00     0.016 A 
ENDBRANCH   3   7
BRANCH   4  15
HETATM   15  C   UNK     1      61.928  11.224   2.910  1.00  0.00     0.227 C 
HETATM   16  O   UNK     1      62.028  11.891   1.887  1.00  0.00    -0.643 OA
HETATM   17  O   UNK     1      62.056  11.818   4.118  1.00  0.00    -0.643 OA
ENDBRANCH   4  15
TORSDOF 2
ENDMDL
