MODEL 1
REMARK VINA RESULT:      -5.0      0.000      0.000
REMARK  5 active torsions:
REMARK  status: ('A' for Active; 'I' for Inactive)
REMARK    1  A    between atoms: C_1  and  C_3 
REMARK    2  A    between atoms: C_2  and  C_11 
REMARK    3  A    between atoms: C_3  and  N_15 
REMARK    4  A    between atoms: C_6  and  O_10 
REMARK    5  A    between atoms: O_10  and  C_11 
ROOT
HETATM    1  C   UNL     1      62.589   8.711   3.653  1.00  0.00     0.017 A 
HETATM    2  N   UNL     1      63.760   9.822   5.477  1.00  0.00    -0.346 N 
ATOM      3  HN  UNL     1      63.812  10.575   6.163  1.00  0.00     0.167 HD
HETATM    4  C   UNL     1      64.716   8.878   5.385  1.00  0.00     0.142 A 
HETATM    5  C   UNL     1      62.720   9.718   4.608  1.00  0.00     0.104 A 
HETATM    6  C   UNL     1      63.609   7.757   3.589  1.00  0.00     0.020 A 
HETATM    7  C   UNL     1      64.689   7.836   4.475  1.00  0.00     0.057 A 
ENDROOT
BRANCH   4   8
HETATM    8  O   UNL     1      65.801   8.933   6.233  1.00  0.00    -0.327 OA
BRANCH   8   9
HETATM    9  C   UNL     1      66.600   7.740   6.197  1.00  0.00     0.294 C 
BRANCH   9  10
HETATM   10  C   UNL     1      66.538   6.909   7.479  1.00  0.00     0.408 C 
HETATM   11  F   UNL     1      67.136   5.702   7.360  1.00  0.00    -0.169 F 
HETATM   12  F   UNL     1      67.103   7.552   8.526  1.00  0.00    -0.169 F 
HETATM   13  F   UNL     1      65.245   6.667   7.817  1.00  0.00    -0.169 F 
ENDBRANCH   9  10
ENDBRANCH   8   9
ENDBRANCH   4   8
BRANCH   1  14
HETATM   14  C   UNL     1      61.418   8.654   2.737  1.00  0.00     0.105 C 
HETATM   15  S   UNL     1      61.484   8.762   1.069  1.00  0.00    -0.060 SA
BRANCH  14  16
HETATM   16  N   UNL     1      60.181   8.512   3.315  1.00  0.00    -0.389 N 
HETATM   17  H   UNL     1      59.371   8.534   2.756  1.00  0.00     0.157 HD
HETATM   18  H   UNL     1      60.104   8.386   4.288  1.00  0.00     0.157 HD
ENDBRANCH  14  16
ENDBRANCH   1  14
TORSDOF 5
ENDMDL
MODEL 2
REMARK VINA RESULT:      -5.0      1.412      1.665
REMARK  5 active torsions:
REMARK  status: ('A' for Active; 'I' for Inactive)
REMARK    1  A    between atoms: C_1  and  C_3 
REMARK    2  A    between atoms: C_2  and  C_11 
REMARK    3  A    between atoms: C_3  and  N_15 
REMARK    4  A    between atoms: C_6  and  O_10 
REMARK    5  A    between atoms: O_10  and  C_11 
ROOT
HETATM    1  C   UNL     1      62.644   8.968   3.524  1.00  0.00     0.017 A 
HETATM    2  N   UNL     1      63.178   9.162   5.893  1.00  0.00    -0.346 N 
ATOM      3  HN  UNL     1      63.188   9.708   6.753  1.00  0.00     0.167 HD
HETATM    4  C   UNL     1      63.650   7.900   5.848  1.00  0.00     0.142 A 
HETATM    5  C   UNL     1      62.689   9.667   4.730  1.00  0.00     0.104 A 
HETATM    6  C   UNL     1      63.151   7.664   3.524  1.00  0.00     0.020 A 
HETATM    7  C   UNL     1      63.656   7.117   4.708  1.00  0.00     0.057 A 
ENDROOT
BRANCH   4   8
HETATM    8  O   UNL     1      64.167   7.334   6.993  1.00  0.00    -0.327 OA
BRANCH   8   9
HETATM    9  C   UNL     1      65.378   6.599   6.756  1.00  0.00     0.294 C 
BRANCH   9  10
HETATM   10  C   UNL     1      66.649   7.336   7.178  1.00  0.00     0.408 C 
HETATM   11  F   UNL     1      66.645   8.644   6.833  1.00  0.00    -0.169 F 
HETATM   12  F   UNL     1      66.859   7.259   8.511  1.00  0.00    -0.169 F 
HETATM   13  F   UNL     1      67.732   6.782   6.575  1.00  0.00    -0.169 F 
ENDBRANCH   9  10
ENDBRANCH   8   9
ENDBRANCH   4   8
BRANCH   1  14
HETATM   14  C   UNL     1      62.086   9.581   2.289  1.00  0.00     0.105 C 
HETATM   15  S   UNL     1      62.066   8.869   0.776  1.00  0.00    -0.060 SA
BRANCH  14  16
HETATM   16  N   UNL     1      61.555  10.842   2.404  1.00  0.00    -0.389 N 
HETATM   17  H   UNL     1      61.310  11.195   3.289  1.00  0.00     0.157 HD
HETATM   18  H   UNL     1      61.421  11.394   1.600  1.00  0.00     0.157 HD
ENDBRANCH  14  16
ENDBRANCH   1  14
TORSDOF 5
ENDMDL
MODEL 3
REMARK VINA RESULT:      -4.7      0.815      1.625
REMARK  5 active torsions:
REMARK  status: ('A' for Active; 'I' for Inactive)
REMARK    1  A    between atoms: C_1  and  C_3 
REMARK    2  A    between atoms: C_2  and  C_11 
REMARK    3  A    between atoms: C_3  and  N_15 
REMARK    4  A    between atoms: C_6  and  O_10 
REMARK    5  A    between atoms: O_10  and  C_11 
ROOT
HETATM    1  C   UNL     1      62.520   8.561   3.281  1.00  0.00     0.017 A 
HETATM    2  N   UNL     1      64.578   7.778   4.322  1.00  0.00    -0.346 N 
ATOM      3  HN  UNL     1      65.336   7.099   4.376  1.00  0.00     0.167 HD
HETATM    4  C   UNL     1      64.513   8.836   5.153  1.00  0.00     0.142 A 
HETATM    5  C   UNL     1      63.579   7.664   3.407  1.00  0.00     0.104 A 
HETATM    6  C   UNL     1      62.490   9.641   4.170  1.00  0.00     0.020 A 
HETATM    7  C   UNL     1      63.508   9.786   5.118  1.00  0.00     0.057 A 
ENDROOT
BRANCH   4   8
HETATM    8  O   UNL     1      65.492   9.004   6.108  1.00  0.00    -0.327 OA
BRANCH   8   9
HETATM    9  C   UNL     1      66.481   7.963   6.083  1.00  0.00     0.294 C 
BRANCH   9  10
HETATM   10  C   UNL     1      66.439   7.033   7.296  1.00  0.00     0.408 C 
HETATM   11  F   UNL     1      65.182   6.739   7.698  1.00  0.00    -0.169 F 
HETATM   12  F   UNL     1      67.084   5.868   7.062  1.00  0.00    -0.169 F 
HETATM   13  F   UNL     1      67.057   7.619   8.355  1.00  0.00    -0.169 F 
ENDBRANCH   9  10
ENDBRANCH   8   9
ENDBRANCH   4   8
BRANCH   1  14
HETATM   14  C   UNL     1      61.463   8.378   2.250  1.00  0.00     0.105 C 
HETATM   15  S   UNL     1      61.728   8.221   0.606  1.00  0.00    -0.060 SA
BRANCH  14  16
HETATM   16  N   UNL     1      60.162   8.348   2.688  1.00  0.00    -0.389 N 
HETATM   17  H   UNL     1      59.641   9.181   2.741  1.00  0.00     0.157 HD
HETATM   18  H   UNL     1      59.750   7.493   2.949  1.00  0.00     0.157 HD
ENDBRANCH  14  16
ENDBRANCH   1  14
TORSDOF 5
ENDMDL
MODEL 4
REMARK VINA RESULT:      -4.6      4.737      6.240
REMARK  5 active torsions:
REMARK  status: ('A' for Active; 'I' for Inactive)
REMARK    1  A    between atoms: C_1  and  C_3 
REMARK    2  A    between atoms: C_2  and  C_11 
REMARK    3  A    between atoms: C_3  and  N_15 
REMARK    4  A    between atoms: C_6  and  O_10 
REMARK    5  A    between atoms: O_10  and  C_11 
ROOT
HETATM    1  C   UNL     1      65.253   7.351   6.324  1.00  0.00     0.017 A 
HETATM    2  N   UNL     1      62.888   7.044   5.829  1.00  0.00    -0.346 N 
ATOM      3  HN  UNL     1      62.008   6.557   5.995  1.00  0.00     0.167 HD
HETATM    4  C   UNL     1      62.988   8.044   4.931  1.00  0.00     0.142 A 
HETATM    5  C   UNL     1      64.023   6.719   6.503  1.00  0.00     0.104 A 
HETATM    6  C   UNL     1      65.311   8.378   5.377  1.00  0.00     0.020 A 
HETATM    7  C   UNL     1      64.157   8.737   4.673  1.00  0.00     0.057 A 
ENDROOT
BRANCH   4   8
HETATM    8  O   UNL     1      61.874   8.415   4.210  1.00  0.00    -0.327 OA
BRANCH   8   9
HETATM    9  C   UNL     1      62.025   9.688   3.564  1.00  0.00     0.294 C 
BRANCH   9  10
HETATM   10  C   UNL     1      61.928   9.629   2.039  1.00  0.00     0.408 C 
HETATM   11  F   UNL     1      62.061  10.839   1.450  1.00  0.00    -0.169 F 
HETATM   12  F   UNL     1      62.856   8.803   1.505  1.00  0.00    -0.169 F 
HETATM   13  F   UNL     1      60.713   9.150   1.667  1.00  0.00    -0.169 F 
ENDBRANCH   9  10
ENDBRANCH   8   9
ENDBRANCH   4   8
BRANCH   1  14
HETATM   14  C   UNL     1      66.455   6.948   7.103  1.00  0.00     0.105 C 
HETATM   15  S   UNL     1      66.437   6.179   8.588  1.00  0.00    -0.060 SA
BRANCH  14  16
HETATM   16  N   UNL     1      67.680   7.246   6.559  1.00  0.00    -0.389 N 
HETATM   17  H   UNL     1      68.328   6.527   6.381  1.00  0.00     0.157 HD
HETATM   18  H   UNL     1      67.910   8.179   6.345  1.00  0.00     0.157 HD
ENDBRANCH  14  16
ENDBRANCH   1  14
TORSDOF 5
ENDMDL
MODEL 5
REMARK VINA RESULT:      -4.5      4.637      5.978
REMARK  5 active torsions:
REMARK  status: ('A' for Active; 'I' for Inactive)
REMARK    1  A    between atoms: C_1  and  C_3 
REMARK    2  A    between atoms: C_2  and  C_11 
REMARK    3  A    between atoms: C_3  and  N_15 
REMARK    4  A    between atoms: C_6  and  O_10 
REMARK    5  A    between atoms: O_10  and  C_11 
ROOT
HETATM    1  C   UNL     1      65.567   6.129   7.022  1.00  0.00     0.017 A 
HETATM    2  N   UNL     1      66.029   8.403   6.284  1.00  0.00    -0.346 N 
ATOM      3  HN  UNL     1      66.659   9.203   6.233  1.00  0.00     0.167 HD
HETATM    4  C   UNL     1      64.805   8.427   5.722  1.00  0.00     0.142 A 
HETATM    5  C   UNL     1      66.381   7.256   6.922  1.00  0.00     0.104 A 
HETATM    6  C   UNL     1      64.302   6.201   6.430  1.00  0.00     0.020 A 
HETATM    7  C   UNL     1      63.916   7.368   5.761  1.00  0.00     0.057 A 
ENDROOT
BRANCH   4   8
HETATM    8  O   UNL     1      64.386   9.565   5.067  1.00  0.00    -0.327 OA
BRANCH   8   9
HETATM    9  C   UNL     1      62.978   9.806   5.209  1.00  0.00     0.294 C 
BRANCH   9  10
HETATM   10  C   UNL     1      62.245  10.024   3.885  1.00  0.00     0.408 C 
HETATM   11  F   UNL     1      62.844   9.411   2.839  1.00  0.00    -0.169 F 
HETATM   12  F   UNL     1      60.964   9.596   3.940  1.00  0.00    -0.169 F 
HETATM   13  F   UNL     1      62.207  11.348   3.586  1.00  0.00    -0.169 F 
ENDBRANCH   9  10
ENDBRANCH   8   9
ENDBRANCH   4   8
BRANCH   1  14
HETATM   14  C   UNL     1      66.020   4.902   7.731  1.00  0.00     0.105 C 
HETATM   15  S   UNL     1      67.407   4.772   8.656  1.00  0.00    -0.060 SA
BRANCH  14  16
HETATM   16  N   UNL     1      65.236   3.782   7.602  1.00  0.00    -0.389 N 
HETATM   17  H   UNL     1      65.493   3.071   6.972  1.00  0.00     0.157 HD
HETATM   18  H   UNL     1      64.418   3.690   8.141  1.00  0.00     0.157 HD
ENDBRANCH  14  16
ENDBRANCH   1  14
TORSDOF 5
ENDMDL
MODEL 6
REMARK VINA RESULT:      -3.9      5.599      6.773
REMARK  5 active torsions:
REMARK  status: ('A' for Active; 'I' for Inactive)
REMARK    1  A    between atoms: C_1  and  C_3 
REMARK    2  A    between atoms: C_2  and  C_11 
REMARK    3  A    between atoms: C_3  and  N_15 
REMARK    4  A    between atoms: C_6  and  O_10 
REMARK    5  A    between atoms: O_10  and  C_11 
ROOT
HETATM    1  C   UNL     1      57.787   6.818   5.121  1.00  0.00     0.017 A 
HETATM    2  N   UNL     1      58.676   7.889   3.122  1.00  0.00    -0.346 N 
ATOM      3  HN  UNL     1      58.565   8.542   2.348  1.00  0.00     0.167 HD
HETATM    4  C   UNL     1      59.807   7.176   3.292  1.00  0.00     0.142 A 
HETATM    5  C   UNL     1      57.692   7.691   4.039  1.00  0.00     0.104 A 
HETATM    6  C   UNL     1      58.977   6.094   5.254  1.00  0.00     0.020 A 
HETATM    7  C   UNL     1      60.008   6.281   4.328  1.00  0.00     0.057 A 
ENDROOT
BRANCH   4   8
HETATM    8  O   UNL     1      60.839   7.325   2.392  1.00  0.00    -0.327 OA
BRANCH   8   9
HETATM    9  C   UNL     1      60.706   8.502   1.579  1.00  0.00     0.294 C 
BRANCH   9  10
HETATM   10  C   UNL     1      62.006   9.285   1.398  1.00  0.00     0.408 C 
HETATM   11  F   UNL     1      62.596   9.068   0.201  1.00  0.00    -0.169 F 
HETATM   12  F   UNL     1      61.816  10.617   1.532  1.00  0.00    -0.169 F 
HETATM   13  F   UNL     1      62.908   8.918   2.345  1.00  0.00    -0.169 F 
ENDBRANCH   9  10
ENDBRANCH   8   9
ENDBRANCH   4   8
BRANCH   1  14
HETATM   14  C   UNL     1      56.672   6.657   6.092  1.00  0.00     0.105 C 
HETATM   15  S   UNL     1      56.644   7.269   7.649  1.00  0.00    -0.060 SA
BRANCH  14  16
HETATM   16  N   UNL     1      55.580   5.936   5.675  1.00  0.00    -0.389 N 
HETATM   17  H   UNL     1      54.762   5.921   6.221  1.00  0.00     0.157 HD
HETATM   18  H   UNL     1      55.616   5.434   4.829  1.00  0.00     0.157 HD
ENDBRANCH  14  16
ENDBRANCH   1  14
TORSDOF 5
ENDMDL
MODEL 7
REMARK VINA RESULT:      -3.8      4.486      6.046
REMARK  5 active torsions:
REMARK  status: ('A' for Active; 'I' for Inactive)
REMARK    1  A    between atoms: C_1  and  C_3 
REMARK    2  A    between atoms: C_2  and  C_11 
REMARK    3  A    between atoms: C_3  and  N_15 
REMARK    4  A    between atoms: C_6  and  O_10 
REMARK    5  A    between atoms: O_10  and  C_11 
ROOT
HETATM    1  C   UNL     1      65.193   7.636   5.344  1.00  0.00     0.017 A 
HETATM    2  N   UNL     1      64.234   6.810   3.263  1.00  0.00    -0.346 N 
ATOM      3  HN  UNL     1      64.191   6.101   2.532  1.00  0.00     0.167 HD
HETATM    4  C   UNL     1      63.445   7.902   3.239  1.00  0.00     0.142 A 
HETATM    5  C   UNL     1      65.091   6.704   4.312  1.00  0.00     0.104 A 
HETATM    6  C   UNL     1      64.359   8.757   5.275  1.00  0.00     0.020 A 
HETATM    7  C   UNL     1      63.463   8.889   4.208  1.00  0.00     0.057 A 
ENDROOT
BRANCH   4   8
HETATM    8  O   UNL     1      62.561   8.071   2.197  1.00  0.00    -0.327 OA
BRANCH   8   9
HETATM    9  C   UNL     1      61.281   8.565   2.623  1.00  0.00     0.294 C 
BRANCH   9  10
HETATM   10  C   UNL     1      60.282   7.470   2.996  1.00  0.00     0.408 C 
HETATM   11  F   UNL     1      60.620   6.254   2.510  1.00  0.00    -0.169 F 
HETATM   12  F   UNL     1      60.133   7.356   4.335  1.00  0.00    -0.169 F 
HETATM   13  F   UNL     1      59.057   7.763   2.486  1.00  0.00    -0.169 F 
ENDBRANCH   9  10
ENDBRANCH   8   9
ENDBRANCH   4   8
BRANCH   1  14
HETATM   14  C   UNL     1      66.149   7.452   6.468  1.00  0.00     0.105 C 
HETATM   15  S   UNL     1      66.484   6.001   7.229  1.00  0.00    -0.060 SA
BRANCH  14  16
HETATM   16  N   UNL     1      66.799   8.572   6.924  1.00  0.00    -0.389 N 
HETATM   17  H   UNL     1      67.776   8.561   7.040  1.00  0.00     0.157 HD
HETATM   18  H   UNL     1      66.287   9.386   7.135  1.00  0.00     0.157 HD
ENDBRANCH  14  16
ENDBRANCH   1  14
TORSDOF 5
ENDMDL
MODEL 8
REMARK VINA RESULT:      -3.7      4.568      6.024
REMARK  5 active torsions:
REMARK  status: ('A' for Active; 'I' for Inactive)
REMARK    1  A    between atoms: C_1  and  C_3 
REMARK    2  A    between atoms: C_2  and  C_11 
REMARK    3  A    between atoms: C_3  and  N_15 
REMARK    4  A    between atoms: C_6  and  O_10 
REMARK    5  A    between atoms: O_10  and  C_11 
ROOT
HETATM    1  C   UNL     1      65.942   4.712   6.834  1.00  0.00     0.017 A 
HETATM    2  N   UNL     1      65.771   7.130   6.594  1.00  0.00    -0.346 N 
ATOM      3  HN  UNL     1      66.212   8.049   6.584  1.00  0.00     0.167 HD
HETATM    4  C   UNL     1      64.448   6.976   6.391  1.00  0.00     0.142 A 
HETATM    5  C   UNL     1      66.486   5.995   6.813  1.00  0.00     0.104 A 
HETATM    6  C   UNL     1      64.563   4.601   6.625  1.00  0.00     0.020 A 
HETATM    7  C   UNL     1      63.803   5.752   6.391  1.00  0.00     0.057 A 
ENDROOT
BRANCH   4   8
HETATM    8  O   UNL     1      63.666   8.089   6.170  1.00  0.00    -0.327 OA
BRANCH   8   9
HETATM    9  C   UNL     1      64.013   8.785   4.963  1.00  0.00     0.294 C 
BRANCH   9  10
HETATM   10  C   UNL     1      63.298   8.265   3.716  1.00  0.00     0.408 C 
HETATM   11  F   UNL     1      62.914   9.250   2.873  1.00  0.00    -0.169 F 
HETATM   12  F   UNL     1      64.065   7.396   3.019  1.00  0.00    -0.169 F 
HETATM   13  F   UNL     1      62.169   7.598   4.069  1.00  0.00    -0.169 F 
ENDBRANCH   9  10
ENDBRANCH   8   9
ENDBRANCH   4   8
BRANCH   1  14
HETATM   14  C   UNL     1      66.787   3.512   7.073  1.00  0.00     0.105 C 
HETATM   15  S   UNL     1      68.060   3.014   6.109  1.00  0.00    -0.060 SA
BRANCH  14  16
HETATM   16  N   UNL     1      66.486   2.744   8.171  1.00  0.00    -0.389 N 
HETATM   17  H   UNL     1      65.655   2.217   8.190  1.00  0.00     0.157 HD
HETATM   18  H   UNL     1      67.101   2.722   8.939  1.00  0.00     0.157 HD
ENDBRANCH  14  16
ENDBRANCH   1  14
TORSDOF 5
ENDMDL
MODEL 9
REMARK VINA RESULT:      -3.6      5.253      6.229
REMARK  5 active torsions:
REMARK  status: ('A' for Active; 'I' for Inactive)
REMARK    1  A    between atoms: C_1  and  C_3 
REMARK    2  A    between atoms: C_2  and  C_11 
REMARK    3  A    between atoms: C_3  and  N_15 
REMARK    4  A    between atoms: C_6  and  O_10 
REMARK    5  A    between atoms: O_10  and  C_11 
ROOT
HETATM    1  C   UNL     1      60.098   5.905   6.087  1.00  0.00     0.017 A 
HETATM    2  N   UNL     1      60.418   7.194   4.045  1.00  0.00    -0.346 N 
ATOM      3  HN  UNL     1      60.056   7.550   3.161  1.00  0.00     0.167 HD
HETATM    4  C   UNL     1      61.670   7.467   4.461  1.00  0.00     0.142 A 
HETATM    5  C   UNL     1      59.662   6.418   4.866  1.00  0.00     0.104 A 
HETATM    6  C   UNL     1      61.407   6.209   6.475  1.00  0.00     0.020 A 
HETATM    7  C   UNL     1      62.205   7.010   5.652  1.00  0.00     0.057 A 
ENDROOT
BRANCH   4   8
HETATM    8  O   UNL     1      62.488   8.242   3.669  1.00  0.00    -0.327 OA
BRANCH   8   9
HETATM    9  C   UNL     1      61.871   9.474   3.264  1.00  0.00     0.294 C 
BRANCH   9  10
HETATM   10  C   UNL     1      61.843   9.690   1.752  1.00  0.00     0.408 C 
HETATM   11  F   UNL     1      60.662   9.350   1.187  1.00  0.00    -0.169 F 
HETATM   12  F   UNL     1      62.108  10.974   1.419  1.00  0.00    -0.169 F 
HETATM   13  F   UNL     1      62.791   8.924   1.153  1.00  0.00    -0.169 F 
ENDBRANCH   9  10
ENDBRANCH   8   9
ENDBRANCH   4   8
BRANCH   1  14
HETATM   14  C   UNL     1      59.213   5.068   6.940  1.00  0.00     0.105 C 
HETATM   15  S   UNL     1      57.843   4.261   6.420  1.00  0.00    -0.060 SA
BRANCH  14  16
HETATM   16  N   UNL     1      59.545   4.961   8.268  1.00  0.00    -0.389 N 
HETATM   17  H   UNL     1      59.646   5.770   8.817  1.00  0.00     0.157 HD
HETATM   18  H   UNL     1      59.683   4.073   8.670  1.00  0.00     0.157 HD
ENDBRANCH  14  16
ENDBRANCH   1  14
TORSDOF 5
ENDMDL
