MODEL 1
REMARK VINA RESULT:      -4.9      0.000      0.000
REMARK  4 active torsions:
REMARK  status: ('A' for Active; 'I' for Inactive)
REMARK    1  A    between atoms: C_1  and  O_11 
REMARK    2  A    between atoms: C_2  and  C_5 
REMARK    3  A    between atoms: C_5  and  O_12 
REMARK    4  A    between atoms: O_12  and  C_13 
ROOT
HETATM    1  C   UNL     1      62.119  10.006   2.848  1.00  0.00     0.109 A 
HETATM    2  C   UNL     1      63.424   8.402   4.733  1.00  0.00     0.043 A 
HETATM    3  C   UNL     1      62.406  10.514   4.117  1.00  0.00     0.069 A 
HETATM    4  C   UNL     1      62.495   8.697   2.524  1.00  0.00     0.069 A 
HETATM    5  C   UNL     1      63.144   7.891   3.460  1.00  0.00     0.044 A 
HETATM    6  C   UNL     1      63.062   9.717   5.056  1.00  0.00     0.044 A 
HETATM    7 CL   UNL     1      62.162   8.061   0.955  1.00  0.00    -0.081 Cl
HETATM    8 CL   UNL     1      61.962  12.118   4.568  1.00  0.00    -0.081 Cl
ENDROOT
BRANCH   2   9
HETATM    9  C   UNL     1      64.116   7.607   5.769  1.00  0.00     0.293 C 
HETATM   10  O   UNL     1      63.599   7.310   6.835  1.00  0.00    -0.259 OA
BRANCH   9  11
HETATM   11  O   UNL     1      65.339   7.221   5.333  1.00  0.00    -0.318 OA
BRANCH  11  12
HETATM   12  C   UNL     1      66.443   7.952   5.891  1.00  0.00     0.174 C 
HETATM   13  C   UNL     1      67.675   7.778   5.026  1.00  0.00     0.034 C 
ENDBRANCH  11  12
ENDBRANCH   9  11
ENDBRANCH   2   9
BRANCH   1  14
HETATM   14  O   UNL     1      61.474  10.797   1.932  1.00  0.00    -0.357 OA
HETATM   15  H   UNL     1      60.931  11.502   2.223  1.00  0.00     0.217 HD
ENDBRANCH   1  14
TORSDOF 4
ENDMDL
MODEL 2
REMARK VINA RESULT:      -4.8      1.256      2.684
REMARK  4 active torsions:
REMARK  status: ('A' for Active; 'I' for Inactive)
REMARK    1  A    between atoms: C_1  and  O_11 
REMARK    2  A    between atoms: C_2  and  C_5 
REMARK    3  A    between atoms: C_5  and  O_12 
REMARK    4  A    between atoms: O_12  and  C_13 
ROOT
HETATM    1  C   UNL     1      62.199  10.088   3.540  1.00  0.00     0.109 A 
HETATM    2  C   UNL     1      63.793   7.866   4.131  1.00  0.00     0.043 A 
HETATM    3  C   UNL     1      62.269   9.021   2.641  1.00  0.00     0.069 A 
HETATM    4  C   UNL     1      62.922  10.035   4.737  1.00  0.00     0.069 A 
HETATM    5  C   UNL     1      63.720   8.930   5.037  1.00  0.00     0.044 A 
HETATM    6  C   UNL     1      63.059   7.909   2.938  1.00  0.00     0.044 A 
HETATM    7 CL   UNL     1      62.832  11.338   5.864  1.00  0.00    -0.081 Cl
HETATM    8 CL   UNL     1      61.402   9.037   1.151  1.00  0.00    -0.081 Cl
ENDROOT
BRANCH   2   9
HETATM    9  C   UNL     1      64.611   6.662   4.389  1.00  0.00     0.293 C 
HETATM   10  O   UNL     1      64.325   5.833   5.238  1.00  0.00    -0.259 OA
BRANCH   9  11
HETATM   11  O   UNL     1      65.650   6.599   3.522  1.00  0.00    -0.318 OA
BRANCH  11  12
HETATM   12  C   UNL     1      66.937   6.389   4.127  1.00  0.00     0.174 C 
HETATM   13  C   UNL     1      67.432   7.674   4.760  1.00  0.00     0.034 C 
ENDBRANCH  11  12
ENDBRANCH   9  11
ENDBRANCH   2   9
BRANCH   1  14
HETATM   14  O   UNL     1      61.420  11.175   3.239  1.00  0.00    -0.357 OA
HETATM   15  H   UNL     1      61.821  11.986   2.994  1.00  0.00     0.217 HD
ENDBRANCH   1  14
TORSDOF 4
ENDMDL
MODEL 3
REMARK VINA RESULT:      -4.7      1.162      2.605
REMARK  4 active torsions:
REMARK  status: ('A' for Active; 'I' for Inactive)
REMARK    1  A    between atoms: C_1  and  O_11 
REMARK    2  A    between atoms: C_2  and  C_5 
REMARK    3  A    between atoms: C_5  and  O_12 
REMARK    4  A    between atoms: O_12  and  C_13 
ROOT
HETATM    1  C   UNL     1      62.370   8.834   2.119  1.00  0.00     0.109 A 
HETATM    2  C   UNL     1      63.594   8.450   4.605  1.00  0.00     0.043 A 
HETATM    3  C   UNL     1      62.957   7.604   2.425  1.00  0.00     0.069 A 
HETATM    4  C   UNL     1      62.391   9.866   3.064  1.00  0.00     0.069 A 
HETATM    5  C   UNL     1      63.002   9.682   4.305  1.00  0.00     0.044 A 
HETATM    6  C   UNL     1      63.562   7.409   3.666  1.00  0.00     0.044 A 
HETATM    7 CL   UNL     1      61.656  11.386   2.706  1.00  0.00    -0.081 Cl
HETATM    8 CL   UNL     1      62.961   6.300   1.296  1.00  0.00    -0.081 Cl
ENDROOT
BRANCH   2   9
HETATM    9  C   UNL     1      64.250   8.183   5.903  1.00  0.00     0.293 C 
HETATM   10  O   UNL     1      63.808   7.394   6.721  1.00  0.00    -0.259 OA
BRANCH   9  11
HETATM   11  O   UNL     1      65.409   8.879   6.001  1.00  0.00    -0.318 OA
BRANCH  11  12
HETATM   12  C   UNL     1      66.572   8.087   6.291  1.00  0.00     0.174 C 
HETATM   13  C   UNL     1      67.268   7.690   5.005  1.00  0.00     0.034 C 
ENDBRANCH  11  12
ENDBRANCH   9  11
ENDBRANCH   2   9
BRANCH   1  14
HETATM   14  O   UNL     1      61.777   9.015   0.896  1.00  0.00    -0.357 OA
HETATM   15  H   UNL     1      62.305   9.089   0.125  1.00  0.00     0.217 HD
ENDBRANCH   1  14
TORSDOF 4
ENDMDL
MODEL 4
REMARK VINA RESULT:      -4.6      1.207      2.761
REMARK  4 active torsions:
REMARK  status: ('A' for Active; 'I' for Inactive)
REMARK    1  A    between atoms: C_1  and  O_11 
REMARK    2  A    between atoms: C_2  and  C_5 
REMARK    3  A    between atoms: C_5  and  O_12 
REMARK    4  A    between atoms: O_12  and  C_13 
ROOT
HETATM    1  C   UNL     1      62.293   9.312   3.123  1.00  0.00     0.109 A 
HETATM    2  C   UNL     1      64.312   8.513   4.888  1.00  0.00     0.043 A 
HETATM    3  C   UNL     1      62.896   8.062   2.972  1.00  0.00     0.069 A 
HETATM    4  C   UNL     1      62.697  10.157   4.164  1.00  0.00     0.069 A 
HETATM    5  C   UNL     1      63.705   9.765   5.046  1.00  0.00     0.044 A 
HETATM    6  C   UNL     1      63.899   7.659   3.855  1.00  0.00     0.044 A 
HETATM    7 CL   UNL     1      61.950  11.697   4.372  1.00  0.00    -0.081 Cl
HETATM    8 CL   UNL     1      62.438   6.985   1.706  1.00  0.00    -0.081 Cl
ENDROOT
BRANCH   2   9
HETATM    9  C   UNL     1      65.378   8.032   5.791  1.00  0.00     0.293 C 
HETATM   10  O   UNL     1      66.134   8.783   6.387  1.00  0.00    -0.259 OA
BRANCH   9  11
HETATM   11  O   UNL     1      65.337   6.682   5.897  1.00  0.00    -0.318 OA
BRANCH  11  12
HETATM   12  C   UNL     1      66.619   6.038   5.982  1.00  0.00     0.174 C 
HETATM   13  C   UNL     1      67.188   5.825   4.594  1.00  0.00     0.034 C 
ENDBRANCH  11  12
ENDBRANCH   9  11
ENDBRANCH   2   9
BRANCH   1  14
HETATM   14  O   UNL     1      61.309   9.698   2.249  1.00  0.00    -0.357 OA
HETATM   15  H   UNL     1      60.789  10.456   2.434  1.00  0.00     0.217 HD
ENDBRANCH   1  14
TORSDOF 4
ENDMDL
MODEL 5
REMARK VINA RESULT:      -4.6      1.737      1.892
REMARK  4 active torsions:
REMARK  status: ('A' for Active; 'I' for Inactive)
REMARK    1  A    between atoms: C_1  and  O_11 
REMARK    2  A    between atoms: C_2  and  C_5 
REMARK    3  A    between atoms: C_5  and  O_12 
REMARK    4  A    between atoms: O_12  and  C_13 
ROOT
HETATM    1  C   UNL     1      61.596   8.569   3.894  1.00  0.00     0.109 A 
HETATM    2  C   UNL     1      64.037   8.157   5.198  1.00  0.00     0.043 A 
HETATM    3  C   UNL     1      62.435   9.652   4.163  1.00  0.00     0.069 A 
HETATM    4  C   UNL     1      61.987   7.279   4.272  1.00  0.00     0.069 A 
HETATM    5  C   UNL     1      63.202   7.067   4.925  1.00  0.00     0.044 A 
HETATM    6  C   UNL     1      63.655   9.448   4.807  1.00  0.00     0.044 A 
HETATM    7 CL   UNL     1      60.968   5.928   3.932  1.00  0.00    -0.081 Cl
HETATM    8 CL   UNL     1      62.000  11.262   3.721  1.00  0.00    -0.081 Cl
ENDROOT
BRANCH   2   9
HETATM    9  C   UNL     1      65.341   8.002   5.877  1.00  0.00     0.293 C 
HETATM   10  O   UNL     1      65.462   7.476   6.971  1.00  0.00    -0.259 OA
BRANCH   9  11
HETATM   11  O   UNL     1      66.344   8.461   5.090  1.00  0.00    -0.318 OA
BRANCH  11  12
HETATM   12  C   UNL     1      67.425   7.538   4.882  1.00  0.00     0.174 C 
HETATM   13  C   UNL     1      66.989   6.424   3.951  1.00  0.00     0.034 C 
ENDBRANCH  11  12
ENDBRANCH   9  11
ENDBRANCH   2   9
BRANCH   1  14
HETATM   14  O   UNL     1      60.399   8.781   3.260  1.00  0.00    -0.357 OA
HETATM   15  H   UNL     1      59.620   8.370   3.579  1.00  0.00     0.217 HD
ENDBRANCH   1  14
TORSDOF 4
ENDMDL
MODEL 6
REMARK VINA RESULT:      -4.4      1.988      2.149
REMARK  4 active torsions:
REMARK  status: ('A' for Active; 'I' for Inactive)
REMARK    1  A    between atoms: C_1  and  O_11 
REMARK    2  A    between atoms: C_2  and  C_5 
REMARK    3  A    between atoms: C_5  and  O_12 
REMARK    4  A    between atoms: O_12  and  C_13 
ROOT
HETATM    1  C   UNL     1      61.345   8.427   3.849  1.00  0.00     0.109 A 
HETATM    2  C   UNL     1      63.799   8.091   5.149  1.00  0.00     0.043 A 
HETATM    3  C   UNL     1      62.241   9.495   3.935  1.00  0.00     0.069 A 
HETATM    4  C   UNL     1      61.685   7.190   4.409  1.00  0.00     0.069 A 
HETATM    5  C   UNL     1      62.906   7.016   5.061  1.00  0.00     0.044 A 
HETATM    6  C   UNL     1      63.468   9.327   4.577  1.00  0.00     0.044 A 
HETATM    7 CL   UNL     1      60.595   5.858   4.297  1.00  0.00    -0.081 Cl
HETATM    8 CL   UNL     1      61.871  11.041   3.266  1.00  0.00    -0.081 Cl
ENDROOT
BRANCH   2   9
HETATM    9  C   UNL     1      65.113   7.973   5.817  1.00  0.00     0.293 C 
HETATM   10  O   UNL     1      65.807   8.938   6.093  1.00  0.00    -0.259 OA
BRANCH   9  11
HETATM   11  O   UNL     1      65.378   6.679   6.119  1.00  0.00    -0.318 OA
BRANCH  11  12
HETATM   12  C   UNL     1      66.439   6.480   7.067  1.00  0.00     0.174 C 
HETATM   13  C   UNL     1      67.653   5.893   6.376  1.00  0.00     0.034 C 
ENDBRANCH  11  12
ENDBRANCH   9  11
ENDBRANCH   2   9
BRANCH   1  14
HETATM   14  O   UNL     1      60.142   8.603   3.216  1.00  0.00    -0.357 OA
HETATM   15  H   UNL     1      59.748   9.453   3.184  1.00  0.00     0.217 HD
ENDBRANCH   1  14
TORSDOF 4
ENDMDL
MODEL 7
REMARK VINA RESULT:      -4.3      2.566      4.711
REMARK  4 active torsions:
REMARK  status: ('A' for Active; 'I' for Inactive)
REMARK    1  A    between atoms: C_1  and  O_11 
REMARK    2  A    between atoms: C_2  and  C_5 
REMARK    3  A    between atoms: C_5  and  O_12 
REMARK    4  A    between atoms: O_12  and  C_13 
ROOT
HETATM    1  C   UNL     1      64.086   9.101   4.936  1.00  0.00     0.109 A 
HETATM    2  C   UNL     1      62.064   8.444   3.118  1.00  0.00     0.043 A 
HETATM    3  C   UNL     1      62.979   9.940   4.791  1.00  0.00     0.069 A 
HETATM    4  C   UNL     1      64.173   7.930   4.174  1.00  0.00     0.069 A 
HETATM    5  C   UNL     1      63.169   7.598   3.264  1.00  0.00     0.044 A 
HETATM    6  C   UNL     1      61.967   9.610   3.890  1.00  0.00     0.044 A 
HETATM    7 CL   UNL     1      65.527   6.876   4.353  1.00  0.00    -0.081 Cl
HETATM    8 CL   UNL     1      62.824  11.396   5.703  1.00  0.00    -0.081 Cl
ENDROOT
BRANCH   2   9
HETATM    9  C   UNL     1      60.960   8.149   2.180  1.00  0.00     0.293 C 
HETATM   10  O   UNL     1      60.751   8.805   1.172  1.00  0.00    -0.259 OA
BRANCH   9  11
HETATM   11  O   UNL     1      60.290   7.038   2.570  1.00  0.00    -0.318 OA
BRANCH  11  12
HETATM   12  C   UNL     1      59.162   7.277   3.428  1.00  0.00     0.174 C 
HETATM   13  C   UNL     1      59.288   6.458   4.697  1.00  0.00     0.034 C 
ENDBRANCH  11  12
ENDBRANCH   9  11
ENDBRANCH   2   9
BRANCH   1  14
HETATM   14  O   UNL     1      65.076   9.434   5.825  1.00  0.00    -0.357 OA
HETATM   15  H   UNL     1      65.544  10.239   5.725  1.00  0.00     0.217 HD
ENDBRANCH   1  14
TORSDOF 4
ENDMDL
MODEL 8
REMARK VINA RESULT:      -4.3      2.102      2.639
REMARK  4 active torsions:
REMARK  status: ('A' for Active; 'I' for Inactive)
REMARK    1  A    between atoms: C_1  and  O_11 
REMARK    2  A    between atoms: C_2  and  C_5 
REMARK    3  A    between atoms: C_5  and  O_12 
REMARK    4  A    between atoms: O_12  and  C_13 
ROOT
HETATM    1  C   UNL     1      62.839   7.075   1.953  1.00  0.00     0.109 A 
HETATM    2  C   UNL     1      64.044   8.143   4.241  1.00  0.00     0.043 A 
HETATM    3  C   UNL     1      62.482   8.349   2.399  1.00  0.00     0.069 A 
HETATM    4  C   UNL     1      63.806   6.342   2.650  1.00  0.00     0.069 A 
HETATM    5  C   UNL     1      64.409   6.868   3.794  1.00  0.00     0.044 A 
HETATM    6  C   UNL     1      63.086   8.885   3.537  1.00  0.00     0.044 A 
HETATM    7 CL   UNL     1      64.270   4.773   2.102  1.00  0.00    -0.081 Cl
HETATM    8 CL   UNL     1      61.294   9.293   1.579  1.00  0.00    -0.081 Cl
ENDROOT
BRANCH   2   9
HETATM    9  C   UNL     1      64.649   8.764   5.439  1.00  0.00     0.293 C 
HETATM   10  O   UNL     1      64.507   9.943   5.720  1.00  0.00    -0.259 OA
BRANCH   9  11
HETATM   11  O   UNL     1      65.303   7.834   6.176  1.00  0.00    -0.318 OA
BRANCH  11  12
HETATM   12  C   UNL     1      66.648   8.183   6.542  1.00  0.00     0.174 C 
HETATM   13  C   UNL     1      67.603   7.821   5.423  1.00  0.00     0.034 C 
ENDBRANCH  11  12
ENDBRANCH   9  11
ENDBRANCH   2   9
BRANCH   1  14
HETATM   14  O   UNL     1      62.239   6.557   0.834  1.00  0.00    -0.357 OA
HETATM   15  H   UNL     1      62.571   6.769  -0.016  1.00  0.00     0.217 HD
ENDBRANCH   1  14
TORSDOF 4
ENDMDL
MODEL 9
REMARK VINA RESULT:      -3.9     10.626     12.065
REMARK  4 active torsions:
REMARK  status: ('A' for Active; 'I' for Inactive)
REMARK    1  A    between atoms: C_1  and  O_11 
REMARK    2  A    between atoms: C_2  and  C_5 
REMARK    3  A    between atoms: C_5  and  O_12 
REMARK    4  A    between atoms: O_12  and  C_13 
ROOT
HETATM    1  C   UNL     1      56.381   1.793  13.357  1.00  0.00     0.109 A 
HETATM    2  C   UNL     1      57.763   2.712  11.104  1.00  0.00     0.043 A 
HETATM    3  C   UNL     1      57.775   1.863  13.375  1.00  0.00     0.069 A 
HETATM    4  C   UNL     1      55.681   2.192  12.212  1.00  0.00     0.069 A 
HETATM    5  C   UNL     1      56.365   2.649  11.084  1.00  0.00     0.044 A 
HETATM    6  C   UNL     1      58.465   2.327  12.255  1.00  0.00     0.044 A 
HETATM    7 CL   UNL     1      53.957   2.127  12.181  1.00  0.00    -0.081 Cl
HETATM    8 CL   UNL     1      58.686   1.381  14.758  1.00  0.00    -0.081 Cl
ENDROOT
BRANCH   2   9
HETATM    9  C   UNL     1      58.549   3.194   9.949  1.00  0.00     0.293 C 
HETATM   10  O   UNL     1      58.955   2.455   9.067  1.00  0.00    -0.259 OA
BRANCH   9  11
HETATM   11  O   UNL     1      58.680   4.542   9.994  1.00  0.00    -0.318 OA
BRANCH  11  12
HETATM   12  C   UNL     1      58.972   5.167   8.734  1.00  0.00     0.174 C 
HETATM   13  C   UNL     1      58.621   6.641   8.788  1.00  0.00     0.034 C 
ENDBRANCH  11  12
ENDBRANCH   9  11
ENDBRANCH   2   9
BRANCH   1  14
HETATM   14  O   UNL     1      55.712   1.336  14.463  1.00  0.00    -0.357 OA
HETATM   15  H   UNL     1      56.171   1.210  15.270  1.00  0.00     0.217 HD
ENDBRANCH   1  14
TORSDOF 4
ENDMDL
