MODEL 1
REMARK VINA RESULT:      -4.6      0.000      0.000
REMARK  3 active torsions:
REMARK  status: ('A' for Active; 'I' for Inactive)
REMARK    1  A    between atoms: C_1  and  N_2 
REMARK    2  A    between atoms: N_2  and  C_3 
REMARK    3  A    between atoms: C_5  and  O_7 
ROOT
HETATM    1  C   UNL     1      63.793   8.320   4.936  1.00  0.00     0.068 A 
HETATM    2  C   UNL     1      65.138   8.145   5.305  1.00  0.00     0.095 A 
HETATM    3  C   UNL     1      63.257   7.498   3.928  1.00  0.00     0.032 A 
HETATM    4  C   UNL     1      65.924   7.227   4.588  1.00  0.00     0.039 A 
HETATM    5  C   UNL     1      64.043   6.576   3.240  1.00  0.00     0.002 A 
HETATM    6  C   UNL     1      65.386   6.451   3.561  1.00  0.00     0.003 A 
ENDROOT
BRANCH   1   7
HETATM    7  N   UNL     1      62.953   9.284   5.539  1.00  0.00    -0.331 N 
HETATM    8  H   UNL     1      62.297   8.940   6.187  1.00  0.00     0.168 HD
BRANCH   7   9
HETATM    9  C   UNL     1      62.941  10.629   5.332  1.00  0.00     0.170 C 
HETATM   10  S   UNL     1      62.036  11.319   4.129  1.00  0.00    -0.041 SA
HETATM   11  N   UNL     1      63.665  11.404   6.183  1.00  0.00    -0.376 N 
HETATM   12  H   UNL     1      64.200  10.985   6.896  1.00  0.00     0.158 HD
HETATM   13  H   UNL     1      63.655  12.383   6.086  1.00  0.00     0.158 HD
ENDBRANCH   7   9
ENDBRANCH   1   7
BRANCH   2  14
HETATM   14  O   UNL     1      65.874   8.881   6.193  1.00  0.00    -0.354 OA
HETATM   15  C   UNL     1      66.937   8.241   6.879  1.00  0.00     0.210 C 
ENDBRANCH   2  14
TORSDOF 3
ENDMDL
MODEL 2
REMARK VINA RESULT:      -4.3      2.975      3.757
REMARK  3 active torsions:
REMARK  status: ('A' for Active; 'I' for Inactive)
REMARK    1  A    between atoms: C_1  and  N_2 
REMARK    2  A    between atoms: N_2  and  C_3 
REMARK    3  A    between atoms: C_5  and  O_7 
ROOT
HETATM    1  C   UNL     1      64.381   7.550   5.483  1.00  0.00     0.068 A 
HETATM    2  C   UNL     1      64.012   8.831   5.040  1.00  0.00     0.095 A 
HETATM    3  C   UNL     1      64.022   6.435   4.702  1.00  0.00     0.032 A 
HETATM    4  C   UNL     1      63.214   8.947   3.889  1.00  0.00     0.039 A 
HETATM    5  C   UNL     1      63.249   6.567   3.551  1.00  0.00     0.002 A 
HETATM    6  C   UNL     1      62.831   7.827   3.151  1.00  0.00     0.003 A 
ENDROOT
BRANCH   1   7
HETATM    7  N   UNL     1      65.104   7.332   6.678  1.00  0.00    -0.331 N 
HETATM    8  H   UNL     1      64.574   7.046   7.457  1.00  0.00     0.168 HD
BRANCH   7   9
HETATM    9  C   UNL     1      66.443   7.468   6.883  1.00  0.00     0.170 C 
HETATM   10  S   UNL     1      67.482   6.185   6.752  1.00  0.00    -0.041 SA
HETATM   11  N   UNL     1      66.914   8.714   7.157  1.00  0.00    -0.376 N 
HETATM   12  H   UNL     1      66.289   9.471   7.233  1.00  0.00     0.158 HD
HETATM   13  H   UNL     1      67.879   8.859   7.279  1.00  0.00     0.158 HD
ENDBRANCH   7   9
ENDBRANCH   1   7
BRANCH   2  14
HETATM   14  O   UNL     1      64.186  10.030   5.677  1.00  0.00    -0.354 OA
HETATM   15  C   UNL     1      63.112  10.954   5.676  1.00  0.00     0.210 C 
ENDBRANCH   2  14
TORSDOF 3
ENDMDL
MODEL 3
REMARK VINA RESULT:      -4.3      3.228      4.831
REMARK  3 active torsions:
REMARK  status: ('A' for Active; 'I' for Inactive)
REMARK    1  A    between atoms: C_1  and  N_2 
REMARK    2  A    between atoms: N_2  and  C_3 
REMARK    3  A    between atoms: C_5  and  O_7 
ROOT
HETATM    1  C   UNL     1      62.605   9.198   3.742  1.00  0.00     0.068 A 
HETATM    2  C   UNL     1      62.401   8.945   2.375  1.00  0.00     0.095 A 
HETATM    3  C   UNL     1      62.303  10.478   4.244  1.00  0.00     0.032 A 
HETATM    4  C   UNL     1      62.002  10.003   1.541  1.00  0.00     0.039 A 
HETATM    5  C   UNL     1      61.886  11.512   3.409  1.00  0.00     0.002 A 
HETATM    6  C   UNL     1      61.750  11.278   2.049  1.00  0.00     0.003 A 
ENDROOT
BRANCH   1   7
HETATM    7  N   UNL     1      63.093   8.220   4.638  1.00  0.00    -0.331 N 
HETATM    8  H   UNL     1      62.413   7.696   5.118  1.00  0.00     0.168 HD
BRANCH   7   9
HETATM    9  C   UNL     1      64.390   7.914   4.916  1.00  0.00     0.170 C 
HETATM   10  S   UNL     1      65.199   6.718   4.105  1.00  0.00    -0.041 SA
HETATM   11  N   UNL     1      65.024   8.660   5.859  1.00  0.00    -0.376 N 
HETATM   12  H   UNL     1      64.536   9.370   6.336  1.00  0.00     0.158 HD
HETATM   13  H   UNL     1      65.972   8.491   6.065  1.00  0.00     0.158 HD
ENDBRANCH   7   9
ENDBRANCH   1   7
BRANCH   2  14
HETATM   14  O   UNL     1      62.702   7.811   1.671  1.00  0.00    -0.354 OA
HETATM   15  C   UNL     1      62.107   7.632   0.397  1.00  0.00     0.210 C 
ENDBRANCH   2  14
TORSDOF 3
ENDMDL
MODEL 4
REMARK VINA RESULT:      -4.3      3.090      4.199
REMARK  3 active torsions:
REMARK  status: ('A' for Active; 'I' for Inactive)
REMARK    1  A    between atoms: C_1  and  N_2 
REMARK    2  A    between atoms: N_2  and  C_3 
REMARK    3  A    between atoms: C_5  and  O_7 
ROOT
HETATM    1  C   UNL     1      62.765   8.203   3.052  1.00  0.00     0.068 A 
HETATM    2  C   UNL     1      62.282   9.351   2.403  1.00  0.00     0.095 A 
HETATM    3  C   UNL     1      63.019   7.050   2.285  1.00  0.00     0.032 A 
HETATM    4  C   UNL     1      61.974   9.278   1.034  1.00  0.00     0.039 A 
HETATM    5  C   UNL     1      62.729   6.999   0.923  1.00  0.00     0.002 A 
HETATM    6  C   UNL     1      62.191   8.113   0.298  1.00  0.00     0.003 A 
ENDROOT
BRANCH   1   7
HETATM    7  N   UNL     1      63.015   8.156   4.443  1.00  0.00    -0.331 N 
HETATM    8  H   UNL     1      62.411   7.586   4.971  1.00  0.00     0.168 HD
BRANCH   7   9
HETATM    9  C   UNL     1      63.988   8.804   5.140  1.00  0.00     0.170 C 
HETATM   10  S   UNL     1      65.487   8.137   5.372  1.00  0.00    -0.041 SA
HETATM   11  N   UNL     1      63.706  10.049   5.607  1.00  0.00    -0.376 N 
HETATM   12  H   UNL     1      62.812  10.437   5.465  1.00  0.00     0.158 HD
HETATM   13  H   UNL     1      64.395  10.562   6.087  1.00  0.00     0.158 HD
ENDBRANCH   7   9
ENDBRANCH   1   7
BRANCH   2  14
HETATM   14  O   UNL     1      61.897  10.540   2.962  1.00  0.00    -0.354 OA
HETATM   15  C   UNL     1      61.785  11.674   2.120  1.00  0.00     0.210 C 
ENDBRANCH   2  14
TORSDOF 3
ENDMDL
MODEL 5
REMARK VINA RESULT:      -4.2      2.781      4.072
REMARK  3 active torsions:
REMARK  status: ('A' for Active; 'I' for Inactive)
REMARK    1  A    between atoms: C_1  and  N_2 
REMARK    2  A    between atoms: N_2  and  C_3 
REMARK    3  A    between atoms: C_5  and  O_7 
ROOT
HETATM    1  C   UNL     1      62.821   8.647   3.651  1.00  0.00     0.068 A 
HETATM    2  C   UNL     1      62.656   9.860   4.340  1.00  0.00     0.095 A 
HETATM    3  C   UNL     1      62.527   8.606   2.274  1.00  0.00     0.032 A 
HETATM    4  C   UNL     1      62.109  10.959   3.657  1.00  0.00     0.039 A 
HETATM    5  C   UNL     1      62.006   9.712   1.605  1.00  0.00     0.002 A 
HETATM    6  C   UNL     1      61.782  10.888   2.302  1.00  0.00     0.003 A 
ENDROOT
BRANCH   1   7
HETATM    7  N   UNL     1      63.276   7.465   4.278  1.00  0.00    -0.331 N 
HETATM    8  H   UNL     1      62.791   6.640   4.049  1.00  0.00     0.168 HD
BRANCH   7   9
HETATM    9  C   UNL     1      64.304   7.329   5.160  1.00  0.00     0.170 C 
HETATM   10  S   UNL     1      65.874   7.178   4.655  1.00  0.00    -0.041 SA
HETATM   11  N   UNL     1      64.006   7.367   6.486  1.00  0.00    -0.376 N 
HETATM   12  H   UNL     1      63.069   7.458   6.777  1.00  0.00     0.158 HD
HETATM   13  H   UNL     1      64.725   7.305   7.154  1.00  0.00     0.158 HD
ENDBRANCH   7   9
ENDBRANCH   1   7
BRANCH   2  14
HETATM   14  O   UNL     1      62.804  10.098   5.680  1.00  0.00    -0.354 OA
HETATM   15  C   UNL     1      63.274  11.372   6.087  1.00  0.00     0.210 C 
ENDBRANCH   2  14
TORSDOF 3
ENDMDL
MODEL 6
REMARK VINA RESULT:      -4.2      1.524      2.744
REMARK  3 active torsions:
REMARK  status: ('A' for Active; 'I' for Inactive)
REMARK    1  A    between atoms: C_1  and  N_2 
REMARK    2  A    between atoms: N_2  and  C_3 
REMARK    3  A    between atoms: C_5  and  O_7 
ROOT
HETATM    1  C   UNL     1      64.334   8.258   5.038  1.00  0.00     0.068 A 
HETATM    2  C   UNL     1      64.090   7.380   3.969  1.00  0.00     0.095 A 
HETATM    3  C   UNL     1      65.638   8.336   5.564  1.00  0.00     0.032 A 
HETATM    4  C   UNL     1      65.127   6.539   3.530  1.00  0.00     0.039 A 
HETATM    5  C   UNL     1      66.663   7.512   5.103  1.00  0.00     0.002 A 
HETATM    6  C   UNL     1      66.402   6.600   4.093  1.00  0.00     0.003 A 
ENDROOT
BRANCH   1   7
HETATM    7  N   UNL     1      63.329   9.073   5.606  1.00  0.00    -0.331 N 
HETATM    8  H   UNL     1      62.788   8.659   6.318  1.00  0.00     0.168 HD
BRANCH   7   9
HETATM    9  C   UNL     1      63.016  10.359   5.289  1.00  0.00     0.170 C 
HETATM   10  S   UNL     1      62.050  10.730   3.996  1.00  0.00    -0.041 SA
HETATM   11  N   UNL     1      63.488  11.341   6.102  1.00  0.00    -0.376 N 
HETATM   12  H   UNL     1      64.062  11.111   6.869  1.00  0.00     0.158 HD
HETATM   13  H   UNL     1      63.257  12.281   5.925  1.00  0.00     0.158 HD
ENDBRANCH   7   9
ENDBRANCH   1   7
BRANCH   2  14
HETATM   14  O   UNL     1      62.894   7.091   3.368  1.00  0.00    -0.354 OA
HETATM   15  C   UNL     1      62.698   7.509   2.028  1.00  0.00     0.210 C 
ENDBRANCH   2  14
TORSDOF 3
ENDMDL
MODEL 7
REMARK VINA RESULT:      -4.0      2.760      4.562
REMARK  3 active torsions:
REMARK  status: ('A' for Active; 'I' for Inactive)
REMARK    1  A    between atoms: C_1  and  N_2 
REMARK    2  A    between atoms: N_2  and  C_3 
REMARK    3  A    between atoms: C_5  and  O_7 
ROOT
HETATM    1  C   UNL     1      63.113   9.080   4.909  1.00  0.00     0.068 A 
HETATM    2  C   UNL     1      62.700   8.701   3.621  1.00  0.00     0.095 A 
HETATM    3  C   UNL     1      62.866  10.397   5.338  1.00  0.00     0.032 A 
HETATM    4  C   UNL     1      62.148   9.674   2.771  1.00  0.00     0.039 A 
HETATM    5  C   UNL     1      62.296  11.347   4.492  1.00  0.00     0.002 A 
HETATM    6  C   UNL     1      61.949  10.988   3.199  1.00  0.00     0.003 A 
ENDROOT
BRANCH   1   7
HETATM    7  N   UNL     1      63.762   8.192   5.797  1.00  0.00    -0.331 N 
HETATM    8  H   UNL     1      63.311   8.037   6.658  1.00  0.00     0.168 HD
BRANCH   7   9
HETATM    9  C   UNL     1      64.935   7.527   5.607  1.00  0.00     0.170 C 
HETATM   10  S   UNL     1      66.378   8.129   6.151  1.00  0.00    -0.041 SA
HETATM   11  N   UNL     1      64.878   6.316   4.991  1.00  0.00    -0.376 N 
HETATM   12  H   UNL     1      64.015   5.966   4.672  1.00  0.00     0.158 HD
HETATM   13  H   UNL     1      65.700   5.789   4.865  1.00  0.00     0.158 HD
ENDBRANCH   7   9
ENDBRANCH   1   7
BRANCH   2  14
HETATM   14  O   UNL     1      62.911   7.509   2.981  1.00  0.00    -0.354 OA
HETATM   15  C   UNL     1      61.782   6.744   2.595  1.00  0.00     0.210 C 
ENDBRANCH   2  14
TORSDOF 3
ENDMDL
MODEL 8
REMARK VINA RESULT:      -3.9      3.493      4.268
REMARK  3 active torsions:
REMARK  status: ('A' for Active; 'I' for Inactive)
REMARK    1  A    between atoms: C_1  and  N_2 
REMARK    2  A    between atoms: N_2  and  C_3 
REMARK    3  A    between atoms: C_5  and  O_7 
ROOT
HETATM    1  C   UNL     1      62.788   8.459   3.396  1.00  0.00     0.068 A 
HETATM    2  C   UNL     1      62.532   9.687   4.027  1.00  0.00     0.095 A 
HETATM    3  C   UNL     1      62.607   8.364   2.003  1.00  0.00     0.032 A 
HETATM    4  C   UNL     1      62.010  10.746   3.265  1.00  0.00     0.039 A 
HETATM    5  C   UNL     1      62.110   9.431   1.256  1.00  0.00     0.002 A 
HETATM    6  C   UNL     1      61.796  10.621   1.892  1.00  0.00     0.003 A 
ENDROOT
BRANCH   1   7
HETATM    7  N   UNL     1      63.226   7.313   4.098  1.00  0.00    -0.331 N 
HETATM    8  H   UNL     1      64.157   7.037   3.936  1.00  0.00     0.168 HD
BRANCH   7   9
HETATM    9  C   UNL     1      62.517   6.545   4.971  1.00  0.00     0.170 C 
HETATM   10  S   UNL     1      61.811   5.121   4.506  1.00  0.00    -0.041 SA
HETATM   11  N   UNL     1      62.444   6.963   6.262  1.00  0.00    -0.376 N 
HETATM   12  H   UNL     1      62.867   7.811   6.529  1.00  0.00     0.158 HD
HETATM   13  H   UNL     1      61.969   6.419   6.930  1.00  0.00     0.158 HD
ENDBRANCH   7   9
ENDBRANCH   1   7
BRANCH   2  14
HETATM   14  O   UNL     1      62.564   9.973   5.366  1.00  0.00    -0.354 OA
HETATM   15  C   UNL     1      63.036  11.248   5.769  1.00  0.00     0.210 C 
ENDBRANCH   2  14
TORSDOF 3
ENDMDL
MODEL 9
REMARK VINA RESULT:      -3.8     12.470     12.881
REMARK  3 active torsions:
REMARK  status: ('A' for Active; 'I' for Inactive)
REMARK    1  A    between atoms: C_1  and  N_2 
REMARK    2  A    between atoms: N_2  and  C_3 
REMARK    3  A    between atoms: C_5  and  O_7 
ROOT
HETATM    1  C   UNL     1      56.745   1.661  13.135  1.00  0.00     0.068 A 
HETATM    2  C   UNL     1      57.697   2.380  12.393  1.00  0.00     0.095 A 
HETATM    3  C   UNL     1      57.195   0.684  14.043  1.00  0.00     0.032 A 
HETATM    4  C   UNL     1      59.053   2.031  12.507  1.00  0.00     0.039 A 
HETATM    5  C   UNL     1      58.546   0.363  14.163  1.00  0.00     0.002 A 
HETATM    6  C   UNL     1      59.477   1.029  13.381  1.00  0.00     0.003 A 
ENDROOT
BRANCH   1   7
HETATM    7  N   UNL     1      55.354   1.881  13.015  1.00  0.00    -0.331 N 
HETATM    8  H   UNL     1      54.847   1.186  12.536  1.00  0.00     0.168 HD
BRANCH   7   9
HETATM    9  C   UNL     1      54.630   2.936  13.481  1.00  0.00     0.170 C 
HETATM   10  S   UNL     1      53.498   3.699  12.544  1.00  0.00    -0.041 SA
HETATM   11  N   UNL     1      54.834   3.318  14.769  1.00  0.00    -0.376 N 
HETATM   12  H   UNL     1      55.509   2.859  15.319  1.00  0.00     0.158 HD
HETATM   13  H   UNL     1      54.306   4.055  15.153  1.00  0.00     0.158 HD
ENDBRANCH   7   9
ENDBRANCH   1   7
BRANCH   2  14
HETATM   14  O   UNL     1      57.478   3.306  11.408  1.00  0.00    -0.354 OA
HETATM   15  C   UNL     1      58.378   3.349  10.314  1.00  0.00     0.210 C 
ENDBRANCH   2  14
TORSDOF 3
ENDMDL
