MODEL 1
REMARK VINA RESULT:      -3.6      0.000      0.000
REMARK  0 active torsions:
REMARK  status: ('A' for Active; 'I' for Inactive)
ROOT
HETATM    1  N   UNL     1      62.221  10.108   4.072  1.00  0.00    -0.345 N 
ATOM      2  HN  UNL     1      62.180  10.817   4.803  1.00  0.00     0.167 HD
HETATM    3  C   UNL     1      62.475   8.762   4.278  1.00  0.00     0.121 A 
HETATM    4  C   UNL     1      62.039  10.333   2.787  1.00  0.00     0.047 A 
HETATM    5  S   UNL     1      62.162   8.950   1.769  1.00  0.00    -0.086 SA
HETATM    6  N   UNL     1      62.901   7.829   6.663  1.00  0.00    -0.190 NA
HETATM    7  C   UNL     1      62.707   8.270   5.605  1.00  0.00     0.118 C 
HETATM    8  C   UNL     1      62.483   7.978   3.146  1.00  0.00     0.092 A 
HETATM    9  C   UNL     1      61.743  11.665   2.193  1.00  0.00     0.076 C 
ENDROOT
TORSDOF 0
ENDMDL
MODEL 2
REMARK VINA RESULT:      -3.4      2.432      3.921
REMARK  0 active torsions:
REMARK  status: ('A' for Active; 'I' for Inactive)
ROOT
HETATM    1  N   UNL     1      64.379   9.222   5.415  1.00  0.00    -0.345 N 
ATOM      2  HN  UNL     1      64.467  10.009   6.057  1.00  0.00     0.167 HD
HETATM    3  C   UNL     1      63.419   9.104   4.422  1.00  0.00     0.121 A 
HETATM    4  C   UNL     1      65.161   8.161   5.403  1.00  0.00     0.047 A 
HETATM    5  S   UNL     1      64.786   6.980   4.208  1.00  0.00    -0.086 SA
HETATM    6  N   UNL     1      61.641  10.959   4.053  1.00  0.00    -0.190 NA
HETATM    7  C   UNL     1      62.447  10.142   4.237  1.00  0.00     0.118 C 
HETATM    8  C   UNL     1      63.483   7.955   3.666  1.00  0.00     0.092 A 
HETATM    9  C   UNL     1      66.304   7.941   6.330  1.00  0.00     0.076 C 
ENDROOT
TORSDOF 0
ENDMDL
MODEL 3
REMARK VINA RESULT:      -3.3      5.177      6.799
REMARK  0 active torsions:
REMARK  status: ('A' for Active; 'I' for Inactive)
ROOT
HETATM    1  N   UNL     1      66.739   7.188   7.643  1.00  0.00    -0.345 N 
ATOM      2  HN  UNL     1      66.533   7.908   8.335  1.00  0.00     0.167 HD
HETATM    3  C   UNL     1      66.312   7.202   6.325  1.00  0.00     0.121 A 
HETATM    4  C   UNL     1      67.452   6.103   7.866  1.00  0.00     0.047 A 
HETATM    5  S   UNL     1      67.645   5.054   6.515  1.00  0.00    -0.086 SA
HETATM    6  N   UNL     1      64.867   9.152   5.406  1.00  0.00    -0.190 NA
HETATM    7  C   UNL     1      65.515   8.291   5.840  1.00  0.00     0.118 C 
HETATM    8  C   UNL     1      66.707   6.126   5.560  1.00  0.00     0.092 A 
HETATM    9  C   UNL     1      68.075   5.752   9.171  1.00  0.00     0.076 C 
ENDROOT
TORSDOF 0
ENDMDL
MODEL 4
REMARK VINA RESULT:      -3.3      1.832      2.065
REMARK  0 active torsions:
REMARK  status: ('A' for Active; 'I' for Inactive)
ROOT
HETATM    1  N   UNL     1      63.189   8.390   3.276  1.00  0.00    -0.345 N 
ATOM      2  HN  UNL     1      63.573   7.517   2.916  1.00  0.00     0.167 HD
HETATM    3  C   UNL     1      63.385   8.880   4.557  1.00  0.00     0.121 A 
HETATM    4  C   UNL     1      62.430   9.223   2.594  1.00  0.00     0.047 A 
HETATM    5  S   UNL     1      61.919  10.626   3.450  1.00  0.00    -0.086 SA
HETATM    6  N   UNL     1      64.822   7.579   6.283  1.00  0.00    -0.190 NA
HETATM    7  C   UNL     1      64.183   8.143   5.493  1.00  0.00     0.118 C 
HETATM    8  C   UNL     1      62.773  10.082   4.835  1.00  0.00     0.092 A 
HETATM    9  C   UNL     1      62.010   9.023   1.180  1.00  0.00     0.076 C 
ENDROOT
TORSDOF 0
ENDMDL
MODEL 5
REMARK VINA RESULT:      -3.2      2.279      3.055
REMARK  0 active torsions:
REMARK  status: ('A' for Active; 'I' for Inactive)
ROOT
HETATM    1  N   UNL     1      62.064   9.622   1.866  1.00  0.00    -0.345 N 
ATOM      2  HN  UNL     1      61.812  10.347   1.195  1.00  0.00     0.167 HD
HETATM    3  C   UNL     1      62.225   9.817   3.228  1.00  0.00     0.121 A 
HETATM    4  C   UNL     1      62.285   8.358   1.570  1.00  0.00     0.047 A 
HETATM    5  S   UNL     1      62.695   7.347   2.902  1.00  0.00    -0.086 SA
HETATM    6  N   UNL     1      61.890  12.159   4.296  1.00  0.00    -0.190 NA
HETATM    7  C   UNL     1      62.034  11.120   3.795  1.00  0.00     0.118 C 
HETATM    8  C   UNL     1      62.567   8.697   3.953  1.00  0.00     0.092 A 
HETATM    9  C   UNL     1      62.203   7.782   0.200  1.00  0.00     0.076 C 
ENDROOT
TORSDOF 0
ENDMDL
MODEL 6
REMARK VINA RESULT:      -3.1      4.289      5.213
REMARK  0 active torsions:
REMARK  status: ('A' for Active; 'I' for Inactive)
ROOT
HETATM    1  N   UNL     1      65.415   7.698   6.695  1.00  0.00    -0.345 N 
ATOM      2  HN  UNL     1      64.691   7.994   7.348  1.00  0.00     0.167 HD
HETATM    3  C   UNL     1      66.590   7.053   7.045  1.00  0.00     0.121 A 
HETATM    4  C   UNL     1      65.377   7.871   5.390  1.00  0.00     0.047 A 
HETATM    5  S   UNL     1      66.738   7.272   4.523  1.00  0.00    -0.086 SA
HETATM    6  N   UNL     1      67.122   6.488   9.522  1.00  0.00    -0.190 NA
HETATM    7  C   UNL     1      66.862   6.751   8.420  1.00  0.00     0.118 C 
HETATM    8  C   UNL     1      67.433   6.742   6.000  1.00  0.00     0.092 A 
HETATM    9  C   UNL     1      64.263   8.530   4.655  1.00  0.00     0.076 C 
ENDROOT
TORSDOF 0
ENDMDL
MODEL 7
REMARK VINA RESULT:      -3.1      1.741      2.876
REMARK  0 active torsions:
REMARK  status: ('A' for Active; 'I' for Inactive)
ROOT
HETATM    1  N   UNL     1      63.652   8.502   4.196  1.00  0.00    -0.345 N 
ATOM      2  HN  UNL     1      64.470   8.288   4.766  1.00  0.00     0.167 HD
HETATM    3  C   UNL     1      62.808   9.585   4.386  1.00  0.00     0.121 A 
HETATM    4  C   UNL     1      63.237   7.792   3.167  1.00  0.00     0.047 A 
HETATM    5  S   UNL     1      61.824   8.384   2.381  1.00  0.00    -0.086 SA
HETATM    6  N   UNL     1      63.220  11.284   6.304  1.00  0.00    -0.190 NA
HETATM    7  C   UNL     1      63.056  10.510   5.452  1.00  0.00     0.118 C 
HETATM    8  C   UNL     1      61.760   9.685   3.497  1.00  0.00     0.092 A 
HETATM    9  C   UNL     1      63.899   6.556   2.669  1.00  0.00     0.076 C 
ENDROOT
TORSDOF 0
ENDMDL
MODEL 8
REMARK VINA RESULT:      -3.1      2.481      3.480
REMARK  0 active torsions:
REMARK  status: ('A' for Active; 'I' for Inactive)
ROOT
HETATM    1  N   UNL     1      61.290   9.903   2.914  1.00  0.00    -0.345 N 
ATOM      2  HN  UNL     1      60.604  10.629   2.714  1.00  0.00     0.167 HD
HETATM    3  C   UNL     1      61.379   8.686   2.256  1.00  0.00     0.121 A 
HETATM    4  C   UNL     1      62.228   9.977   3.836  1.00  0.00     0.047 A 
HETATM    5  S   UNL     1      63.255   8.602   3.960  1.00  0.00    -0.086 SA
HETATM    6  N   UNL     1      59.735   8.073   0.344  1.00  0.00    -0.190 NA
HETATM    7  C   UNL     1      60.460   8.371   1.203  1.00  0.00     0.118 C 
HETATM    8  C   UNL     1      62.385   7.849   2.687  1.00  0.00     0.092 A 
HETATM    9  C   UNL     1      62.436  11.141   4.740  1.00  0.00     0.076 C 
ENDROOT
TORSDOF 0
ENDMDL
MODEL 9
REMARK VINA RESULT:      -3.1      2.287      3.576
REMARK  0 active torsions:
REMARK  status: ('A' for Active; 'I' for Inactive)
ROOT
HETATM    1  N   UNL     1      63.006   8.425   3.053  1.00  0.00    -0.345 N 
ATOM      2  HN  UNL     1      62.882   8.782   2.107  1.00  0.00     0.167 HD
HETATM    3  C   UNL     1      62.733   9.129   4.215  1.00  0.00     0.121 A 
HETATM    4  C   UNL     1      63.449   7.222   3.358  1.00  0.00     0.047 A 
HETATM    5  S   UNL     1      63.560   6.880   5.042  1.00  0.00    -0.086 SA
HETATM    6  N   UNL     1      61.831  11.562   4.126  1.00  0.00    -0.190 NA
HETATM    7  C   UNL     1      62.235  10.472   4.140  1.00  0.00     0.118 C 
HETATM    8  C   UNL     1      62.973   8.453   5.391  1.00  0.00     0.092 A 
HETATM    9  C   UNL     1      63.842   6.187   2.364  1.00  0.00     0.076 C 
ENDROOT
TORSDOF 0
ENDMDL
