MODEL 1
REMARK VINA RESULT:      -4.1      0.000      0.000
REMARK  2 active torsions:
REMARK  status: ('A' for Active; 'I' for Inactive)
REMARK    1  A    between atoms: C_1  and  C_5 
REMARK    2  A    between atoms: C_5  and  N_9 
ROOT
HETATM    1  C   UNL     1      61.616   9.861   2.478  1.00  0.00     0.094 A 
HETATM    2  N   UNL     1      61.481  11.195   2.336  1.00  0.00    -0.258 N 
ATOM      3  HN  UNL     1      61.113  11.689   1.523  1.00  0.00     0.195 HD
HETATM    4  C   UNL     1      62.168   9.565   3.755  1.00  0.00     0.069 A 
HETATM    5  O   UNL     1      61.941  11.762   3.511  1.00  0.00    -0.242 OA
HETATM    6  C   UNL     1      62.351  10.783   4.357  1.00  0.00     0.074 A 
HETATM    7  C   UNL     1      62.872  11.209   5.666  1.00  0.00     0.079 C 
ENDROOT
BRANCH   1   8
HETATM    8  C   UNL     1      61.211   8.968   1.397  1.00  0.00     0.123 C 
HETATM    9  S   UNL     1      62.334   8.293   0.374  1.00  0.00    -0.058 SA
BRANCH   8  10
HETATM   10  N   UNL     1      59.877   8.706   1.254  1.00  0.00    -0.388 N 
HETATM   11  H   UNL     1      59.397   8.202   1.951  1.00  0.00     0.157 HD
HETATM   12  H   UNL     1      59.397   9.019   0.454  1.00  0.00     0.157 HD
ENDBRANCH   8  10
ENDBRANCH   1   8
TORSDOF 2
ENDMDL
MODEL 2
REMARK VINA RESULT:      -4.0      3.026      3.767
REMARK  2 active torsions:
REMARK  status: ('A' for Active; 'I' for Inactive)
REMARK    1  A    between atoms: C_1  and  C_5 
REMARK    2  A    between atoms: C_5  and  N_9 
ROOT
HETATM    1  C   UNL     1      62.779   9.561   4.647  1.00  0.00     0.094 A 
HETATM    2  N   UNL     1      62.692  10.763   5.251  1.00  0.00    -0.258 N 
ATOM      3  HN  UNL     1      62.919  10.977   6.223  1.00  0.00     0.195 HD
HETATM    4  C   UNL     1      62.373   9.673   3.288  1.00  0.00     0.069 A 
HETATM    5  O   UNL     1      62.234  11.650   4.294  1.00  0.00    -0.242 OA
HETATM    6  C   UNL     1      62.045  10.994   3.121  1.00  0.00     0.074 A 
HETATM    7  C   UNL     1      61.558  11.790   1.983  1.00  0.00     0.079 C 
ENDROOT
BRANCH   1   8
HETATM    8  C   UNL     1      63.241   8.399   5.399  1.00  0.00     0.123 C 
HETATM    9  S   UNL     1      62.228   7.115   5.705  1.00  0.00    -0.058 SA
BRANCH   8  10
HETATM   10  N   UNL     1      64.533   8.400   5.843  1.00  0.00    -0.388 N 
HETATM   11  H   UNL     1      64.782   7.870   6.635  1.00  0.00     0.157 HD
HETATM   12  H   UNL     1      65.215   8.931   5.373  1.00  0.00     0.157 HD
ENDBRANCH   8  10
ENDBRANCH   1   8
TORSDOF 2
ENDMDL
MODEL 3
REMARK VINA RESULT:      -4.0      6.702      7.340
REMARK  2 active torsions:
REMARK  status: ('A' for Active; 'I' for Inactive)
REMARK    1  A    between atoms: C_1  and  C_5 
REMARK    2  A    between atoms: C_5  and  N_9 
ROOT
HETATM    1  C   UNL     1      66.657   7.131   6.820  1.00  0.00     0.094 A 
HETATM    2  N   UNL     1      66.838   8.450   7.033  1.00  0.00    -0.258 N 
ATOM      3  HN  UNL     1      67.531   8.880   7.644  1.00  0.00     0.195 HD
HETATM    4  C   UNL     1      65.590   6.931   5.901  1.00  0.00     0.069 A 
HETATM    5  O   UNL     1      65.897   9.103   6.258  1.00  0.00    -0.242 OA
HETATM    6  C   UNL     1      65.153   8.191   5.582  1.00  0.00     0.074 A 
HETATM    7  C   UNL     1      64.097   8.715   4.700  1.00  0.00     0.079 C 
ENDROOT
BRANCH   1   8
HETATM    8  C   UNL     1      67.507   6.158   7.500  1.00  0.00     0.123 C 
HETATM    9  S   UNL     1      67.831   4.676   6.820  1.00  0.00    -0.058 SA
BRANCH   8  10
HETATM   10  N   UNL     1      68.028   6.507   8.715  1.00  0.00    -0.388 N 
HETATM   11  H   UNL     1      67.517   6.330   9.538  1.00  0.00     0.157 HD
HETATM   12  H   UNL     1      68.912   6.936   8.767  1.00  0.00     0.157 HD
ENDBRANCH   8  10
ENDBRANCH   1   8
TORSDOF 2
ENDMDL
MODEL 4
REMARK VINA RESULT:      -3.8      3.139      3.510
REMARK  2 active torsions:
REMARK  status: ('A' for Active; 'I' for Inactive)
REMARK    1  A    between atoms: C_1  and  C_5 
REMARK    2  A    between atoms: C_5  and  N_9 
ROOT
HETATM    1  C   UNL     1      63.118   9.186   4.444  1.00  0.00     0.094 A 
HETATM    2  N   UNL     1      63.504  10.063   5.392  1.00  0.00    -0.258 N 
ATOM      3  HN  UNL     1      62.997  10.893   5.700  1.00  0.00     0.195 HD
HETATM    4  C   UNL     1      64.098   8.165   4.303  1.00  0.00     0.069 A 
HETATM    5  O   UNL     1      64.725   9.616   5.864  1.00  0.00    -0.242 OA
HETATM    6  C   UNL     1      65.076   8.480   5.210  1.00  0.00     0.074 A 
HETATM    7  C   UNL     1      66.356   7.860   5.591  1.00  0.00     0.079 C 
ENDROOT
BRANCH   1   8
HETATM    8  C   UNL     1      61.851   9.378   3.745  1.00  0.00     0.123 C 
HETATM    9  S   UNL     1      60.811   8.107   3.487  1.00  0.00    -0.058 SA
BRANCH   8  10
HETATM   10  N   UNL     1      61.549  10.638   3.310  1.00  0.00    -0.388 N 
HETATM   11  H   UNL     1      60.876  10.766   2.602  1.00  0.00     0.157 HD
HETATM   12  H   UNL     1      62.004  11.417   3.702  1.00  0.00     0.157 HD
ENDBRANCH   8  10
ENDBRANCH   1   8
TORSDOF 2
ENDMDL
MODEL 5
REMARK VINA RESULT:      -3.8      3.116      3.324
REMARK  2 active torsions:
REMARK  status: ('A' for Active; 'I' for Inactive)
REMARK    1  A    between atoms: C_1  and  C_5 
REMARK    2  A    between atoms: C_5  and  N_9 
ROOT
HETATM    1  C   UNL     1      62.999   9.474   4.300  1.00  0.00     0.094 A 
HETATM    2  N   UNL     1      63.401  10.250   5.326  1.00  0.00    -0.258 N 
ATOM      3  HN  UNL     1      62.958  11.108   5.653  1.00  0.00     0.195 HD
HETATM    4  C   UNL     1      63.881   8.366   4.158  1.00  0.00     0.069 A 
HETATM    5  O   UNL     1      64.534   9.652   5.849  1.00  0.00    -0.242 OA
HETATM    6  C   UNL     1      64.817   8.526   5.147  1.00  0.00     0.074 A 
HETATM    7  C   UNL     1      65.998   7.755   5.571  1.00  0.00     0.079 C 
ENDROOT
BRANCH   1   8
HETATM    8  C   UNL     1      61.812   9.837   3.532  1.00  0.00     0.123 C 
HETATM    9  S   UNL     1      61.774  11.221   2.611  1.00  0.00    -0.058 SA
BRANCH   8  10
HETATM   10  N   UNL     1      60.733   9.001   3.595  1.00  0.00    -0.388 N 
HETATM   11  H   UNL     1      59.868   9.286   3.223  1.00  0.00     0.157 HD
HETATM   12  H   UNL     1      60.821   8.115   4.014  1.00  0.00     0.157 HD
ENDBRANCH   8  10
ENDBRANCH   1   8
TORSDOF 2
ENDMDL
MODEL 6
REMARK VINA RESULT:      -3.6      5.560      5.981
REMARK  2 active torsions:
REMARK  status: ('A' for Active; 'I' for Inactive)
REMARK    1  A    between atoms: C_1  and  C_5 
REMARK    2  A    between atoms: C_5  and  N_9 
ROOT
HETATM    1  C   UNL     1      65.993   7.540   5.316  1.00  0.00     0.094 A 
HETATM    2  N   UNL     1      66.058   8.571   6.182  1.00  0.00    -0.258 N 
ATOM      3  HN  UNL     1      66.788   8.743   6.873  1.00  0.00     0.195 HD
HETATM    4  C   UNL     1      64.822   7.654   4.516  1.00  0.00     0.069 A 
HETATM    5  O   UNL     1      64.939   9.350   5.947  1.00  0.00    -0.242 OA
HETATM    6  C   UNL     1      64.203   8.798   4.950  1.00  0.00     0.074 A 
HETATM    7  C   UNL     1      62.969   9.502   4.564  1.00  0.00     0.079 C 
ENDROOT
BRANCH   1   8
HETATM    8  C   UNL     1      67.043   6.526   5.308  1.00  0.00     0.123 C 
HETATM    9  S   UNL     1      67.612   5.867   6.725  1.00  0.00    -0.058 SA
BRANCH   8  10
HETATM   10  N   UNL     1      67.543   6.137   4.096  1.00  0.00    -0.388 N 
HETATM   11  H   UNL     1      68.082   6.764   3.563  1.00  0.00     0.157 HD
HETATM   12  H   UNL     1      67.364   5.231   3.758  1.00  0.00     0.157 HD
ENDBRANCH   8  10
ENDBRANCH   1   8
TORSDOF 2
ENDMDL
MODEL 7
REMARK VINA RESULT:      -3.5      5.362      5.973
REMARK  2 active torsions:
REMARK  status: ('A' for Active; 'I' for Inactive)
REMARK    1  A    between atoms: C_1  and  C_5 
REMARK    2  A    between atoms: C_5  and  N_9 
ROOT
HETATM    1  C   UNL     1      65.264   7.604   5.948  1.00  0.00     0.094 A 
HETATM    2  N   UNL     1      64.199   7.362   6.739  1.00  0.00    -0.258 N 
ATOM      3  HN  UNL     1      64.171   6.750   7.554  1.00  0.00     0.195 HD
HETATM    4  C   UNL     1      64.901   8.513   4.915  1.00  0.00     0.069 A 
HETATM    5  O   UNL     1      63.153   8.107   6.226  1.00  0.00    -0.242 OA
HETATM    6  C   UNL     1      63.578   8.794   5.135  1.00  0.00     0.074 A 
HETATM    7  C   UNL     1      62.588   9.649   4.459  1.00  0.00     0.079 C 
ENDROOT
BRANCH   1   8
HETATM    8  C   UNL     1      66.543   6.960   6.229  1.00  0.00     0.123 C 
HETATM    9  S   UNL     1      66.650   5.313   6.431  1.00  0.00    -0.058 SA
BRANCH   8  10
HETATM   10  N   UNL     1      67.650   7.757   6.321  1.00  0.00    -0.388 N 
HETATM   11  H   UNL     1      68.420   7.468   6.862  1.00  0.00     0.157 HD
HETATM   12  H   UNL     1      67.676   8.619   5.849  1.00  0.00     0.157 HD
ENDBRANCH   8  10
ENDBRANCH   1   8
TORSDOF 2
ENDMDL
MODEL 8
REMARK VINA RESULT:      -3.4      2.995      3.627
REMARK  2 active torsions:
REMARK  status: ('A' for Active; 'I' for Inactive)
REMARK    1  A    between atoms: C_1  and  C_5 
REMARK    2  A    between atoms: C_5  and  N_9 
ROOT
HETATM    1  C   UNL     1      62.421   8.646   3.991  1.00  0.00     0.094 A 
HETATM    2  N   UNL     1      62.544   8.239   2.712  1.00  0.00    -0.258 N 
ATOM      3  HN  UNL     1      62.773   7.298   2.390  1.00  0.00     0.195 HD
HETATM    4  C   UNL     1      62.095  10.031   4.027  1.00  0.00     0.069 A 
HETATM    5  O   UNL     1      62.300   9.348   1.922  1.00  0.00    -0.242 OA
HETATM    6  C   UNL     1      62.031  10.417   2.713  1.00  0.00     0.074 A 
HETATM    7  C   UNL     1      61.743  11.692   2.034  1.00  0.00     0.079 C 
ENDROOT
BRANCH   1   8
HETATM    8  C   UNL     1      62.619   7.697   5.082  1.00  0.00     0.123 C 
HETATM    9  S   UNL     1      62.406   6.065   4.849  1.00  0.00    -0.058 SA
BRANCH   8  10
HETATM   10  N   UNL     1      62.983   8.196   6.301  1.00  0.00    -0.388 N 
HETATM   11  H   UNL     1      62.372   8.792   6.792  1.00  0.00     0.157 HD
HETATM   12  H   UNL     1      63.857   7.960   6.687  1.00  0.00     0.157 HD
ENDBRANCH   8  10
ENDBRANCH   1   8
TORSDOF 2
ENDMDL
MODEL 9
REMARK VINA RESULT:      -3.3      8.042      8.638
REMARK  2 active torsions:
REMARK  status: ('A' for Active; 'I' for Inactive)
REMARK    1  A    between atoms: C_1  and  C_5 
REMARK    2  A    between atoms: C_5  and  N_9 
ROOT
HETATM    1  C   UNL     1      66.689   6.254   7.343  1.00  0.00     0.094 A 
HETATM    2  N   UNL     1      66.210   5.908   8.554  1.00  0.00    -0.258 N 
ATOM      3  HN  UNL     1      65.605   6.468   9.155  1.00  0.00     0.195 HD
HETATM    4  C   UNL     1      67.497   5.204   6.825  1.00  0.00     0.069 A 
HETATM    5  O   UNL     1      66.700   4.643   8.822  1.00  0.00    -0.242 OA
HETATM    6  C   UNL     1      67.469   4.225   7.785  1.00  0.00     0.074 A 
HETATM    7  C   UNL     1      68.075   2.889   7.900  1.00  0.00     0.079 C 
ENDROOT
BRANCH   1   8
HETATM    8  C   UNL     1      66.347   7.550   6.766  1.00  0.00     0.123 C 
HETATM    9  S   UNL     1      65.186   7.684   5.582  1.00  0.00    -0.058 SA
BRANCH   8  10
HETATM   10  N   UNL     1      67.012   8.650   7.230  1.00  0.00    -0.388 N 
HETATM   11  H   UNL     1      67.996   8.663   7.236  1.00  0.00     0.157 HD
HETATM   12  H   UNL     1      66.507   9.428   7.558  1.00  0.00     0.157 HD
ENDBRANCH   8  10
ENDBRANCH   1   8
TORSDOF 2
ENDMDL
