MODEL 1
REMARK VINA RESULT:      -4.2      0.000      0.000
REMARK  3 active torsions:
REMARK  status: ('A' for Active; 'I' for Inactive)
REMARK    1  A    between atoms: C_1  and  C_2 
REMARK    2  A    between atoms: C_2  and  N_9 
REMARK    3  A    between atoms: C_6  and  O_11 
ROOT
HETATM    1  C   UNL     1      62.582   8.682   3.648  1.00  0.00     0.017 A 
HETATM    2  N   UNL     1      63.775   9.787   5.456  1.00  0.00    -0.346 N 
ATOM      3  HN  UNL     1      63.838  10.543   6.139  1.00  0.00     0.167 HD
HETATM    4  C   UNL     1      62.723   9.683   4.606  1.00  0.00     0.104 A 
HETATM    5  C   UNL     1      64.732   8.842   5.355  1.00  0.00     0.141 A 
HETATM    6  C   UNL     1      63.596   7.723   3.573  1.00  0.00     0.020 A 
HETATM    7  C   UNL     1      64.688   7.804   4.439  1.00  0.00     0.057 A 
ENDROOT
BRANCH   1   8
HETATM    8  C   UNL     1      61.396   8.634   2.753  1.00  0.00     0.105 C 
HETATM    9  S   UNL     1      61.434   8.734   1.084  1.00  0.00    -0.060 SA
BRANCH   8  10
HETATM   10  N   UNL     1      60.171   8.487   3.351  1.00  0.00    -0.389 N 
HETATM   11  H   UNL     1      59.507   7.868   2.969  1.00  0.00     0.157 HD
HETATM   12  H   UNL     1      59.955   9.001   4.163  1.00  0.00     0.157 HD
ENDBRANCH   8  10
ENDBRANCH   1   8
BRANCH   5  13
HETATM   13  O   UNL     1      65.825   8.880   6.197  1.00  0.00    -0.341 OA
HETATM   14  C   UNL     1      66.291   7.580   6.551  1.00  0.00     0.211 C 
ENDBRANCH   5  13
TORSDOF 3
ENDMDL
MODEL 2
REMARK VINA RESULT:      -4.1      3.020      4.258
REMARK  3 active torsions:
REMARK  status: ('A' for Active; 'I' for Inactive)
REMARK    1  A    between atoms: C_1  and  C_2 
REMARK    2  A    between atoms: C_2  and  N_9 
REMARK    3  A    between atoms: C_6  and  O_11 
ROOT
HETATM    1  C   UNL     1      63.013   8.323   5.051  1.00  0.00     0.017 A 
HETATM    2  N   UNL     1      62.914  10.752   5.141  1.00  0.00    -0.346 N 
ATOM      3  HN  UNL     1      63.145  11.627   5.612  1.00  0.00     0.167 HD
HETATM    4  C   UNL     1      63.302   9.552   5.640  1.00  0.00     0.104 A 
HETATM    5  C   UNL     1      62.208  10.731   3.992  1.00  0.00     0.141 A 
HETATM    6  C   UNL     1      62.277   8.344   3.862  1.00  0.00     0.020 A 
HETATM    7  C   UNL     1      61.868   9.566   3.324  1.00  0.00     0.057 A 
ENDROOT
BRANCH   1   8
HETATM    8  C   UNL     1      63.476   7.049   5.659  1.00  0.00     0.105 C 
HETATM    9  S   UNL     1      63.179   5.518   5.052  1.00  0.00    -0.060 SA
BRANCH   8  10
HETATM   10  N   UNL     1      64.217   7.142   6.809  1.00  0.00    -0.389 N 
HETATM   11  H   UNL     1      63.796   7.454   7.642  1.00  0.00     0.157 HD
HETATM   12  H   UNL     1      65.170   6.896   6.802  1.00  0.00     0.157 HD
ENDBRANCH   8  10
ENDBRANCH   1   8
BRANCH   5  13
HETATM   13  O   UNL     1      61.792  11.916   3.422  1.00  0.00    -0.341 OA
HETATM   14  C   UNL     1      61.709  11.843   2.000  1.00  0.00     0.211 C 
ENDBRANCH   5  13
TORSDOF 3
ENDMDL
MODEL 3
REMARK VINA RESULT:      -3.8      3.248      4.931
REMARK  3 active torsions:
REMARK  status: ('A' for Active; 'I' for Inactive)
REMARK    1  A    between atoms: C_1  and  C_2 
REMARK    2  A    between atoms: C_2  and  N_9 
REMARK    3  A    between atoms: C_6  and  O_11 
ROOT
HETATM    1  C   UNL     1      62.937   8.890   3.732  1.00  0.00     0.017 A 
HETATM    2  N   UNL     1      61.033   9.563   2.377  1.00  0.00    -0.346 N 
ATOM      3  HN  UNL     1      60.253  10.199   2.205  1.00  0.00     0.167 HD
HETATM    4  C   UNL     1      61.862   9.725   3.438  1.00  0.00     0.104 A 
HETATM    5  C   UNL     1      61.290   8.521   1.560  1.00  0.00     0.141 A 
HETATM    6  C   UNL     1      63.169   7.819   2.863  1.00  0.00     0.020 A 
HETATM    7  C   UNL     1      62.333   7.632   1.761  1.00  0.00     0.057 A 
ENDROOT
BRANCH   1   8
HETATM    8  C   UNL     1      63.803   9.135   4.915  1.00  0.00     0.105 C 
HETATM    9  S   UNL     1      65.124   8.211   5.361  1.00  0.00    -0.060 SA
BRANCH   8  10
HETATM   10  N   UNL     1      63.492  10.217   5.699  1.00  0.00    -0.389 N 
HETATM   11  H   UNL     1      62.598  10.625   5.643  1.00  0.00     0.157 HD
HETATM   12  H   UNL     1      64.164  10.585   6.318  1.00  0.00     0.157 HD
ENDBRANCH   8  10
ENDBRANCH   1   8
BRANCH   5  13
HETATM   13  O   UNL     1      60.494   8.304   0.454  1.00  0.00    -0.341 OA
HETATM   14  C   UNL     1      59.151   7.970   0.800  1.00  0.00     0.211 C 
ENDBRANCH   5  13
TORSDOF 3
ENDMDL
MODEL 4
REMARK VINA RESULT:      -3.7      2.550      3.009
REMARK  3 active torsions:
REMARK  status: ('A' for Active; 'I' for Inactive)
REMARK    1  A    between atoms: C_1  and  C_2 
REMARK    2  A    between atoms: C_2  and  N_9 
REMARK    3  A    between atoms: C_6  and  O_11 
ROOT
HETATM    1  C   UNL     1      63.628   8.802   5.387  1.00  0.00     0.017 A 
HETATM    2  N   UNL     1      63.348   6.521   6.182  1.00  0.00    -0.346 N 
ATOM      3  HN  UNL     1      62.745   5.778   6.535  1.00  0.00     0.167 HD
HETATM    4  C   UNL     1      62.857   7.744   5.864  1.00  0.00     0.104 A 
HETATM    5  C   UNL     1      64.673   6.336   6.010  1.00  0.00     0.141 A 
HETATM    6  C   UNL     1      64.997   8.571   5.224  1.00  0.00     0.020 A 
HETATM    7  C   UNL     1      65.528   7.319   5.541  1.00  0.00     0.057 A 
ENDROOT
BRANCH   1   8
HETATM    8  C   UNL     1      63.014  10.115   5.056  1.00  0.00     0.105 C 
HETATM    9  S   UNL     1      61.969  10.407   3.784  1.00  0.00    -0.060 SA
BRANCH   8  10
HETATM   10  N   UNL     1      63.330  11.172   5.872  1.00  0.00    -0.389 N 
HETATM   11  H   UNL     1      64.245  11.532   5.879  1.00  0.00     0.157 HD
HETATM   12  H   UNL     1      62.639  11.569   6.451  1.00  0.00     0.157 HD
ENDBRANCH   8  10
ENDBRANCH   1   8
BRANCH   5  13
HETATM   13  O   UNL     1      65.238   5.112   6.303  1.00  0.00    -0.341 OA
HETATM   14  C   UNL     1      66.648   5.191   6.505  1.00  0.00     0.211 C 
ENDBRANCH   5  13
TORSDOF 3
ENDMDL
MODEL 5
REMARK VINA RESULT:      -3.6      3.745      5.309
REMARK  3 active torsions:
REMARK  status: ('A' for Active; 'I' for Inactive)
REMARK    1  A    between atoms: C_1  and  C_2 
REMARK    2  A    between atoms: C_2  and  N_9 
REMARK    3  A    between atoms: C_6  and  O_11 
ROOT
HETATM    1  C   UNL     1      65.360   7.295   6.383  1.00  0.00     0.017 A 
HETATM    2  N   UNL     1      62.981   7.044   5.940  1.00  0.00    -0.346 N 
ATOM      3  HN  UNL     1      62.094   6.577   6.128  1.00  0.00     0.167 HD
HETATM    4  C   UNL     1      64.117   6.703   6.598  1.00  0.00     0.104 A 
HETATM    5  C   UNL     1      63.083   8.031   5.026  1.00  0.00     0.141 A 
HETATM    6  C   UNL     1      65.424   8.312   5.426  1.00  0.00     0.020 A 
HETATM    7  C   UNL     1      64.269   8.686   4.737  1.00  0.00     0.057 A 
ENDROOT
BRANCH   1   8
HETATM    8  C   UNL     1      66.560   6.867   7.148  1.00  0.00     0.105 C 
HETATM    9  S   UNL     1      66.548   6.195   8.680  1.00  0.00    -0.060 SA
BRANCH   8  10
HETATM   10  N   UNL     1      67.777   7.032   6.538  1.00  0.00    -0.389 N 
HETATM   11  H   UNL     1      68.063   6.408   5.832  1.00  0.00     0.157 HD
HETATM   12  H   UNL     1      68.365   7.775   6.806  1.00  0.00     0.157 HD
ENDBRANCH   8  10
ENDBRANCH   1   8
BRANCH   5  13
HETATM   13  O   UNL     1      61.965   8.437   4.328  1.00  0.00    -0.341 OA
HETATM   14  C   UNL     1      62.043   9.797   3.906  1.00  0.00     0.211 C 
ENDBRANCH   5  13
TORSDOF 3
ENDMDL
MODEL 6
REMARK VINA RESULT:      -3.6      1.806      1.823
REMARK  3 active torsions:
REMARK  status: ('A' for Active; 'I' for Inactive)
REMARK    1  A    between atoms: C_1  and  C_2 
REMARK    2  A    between atoms: C_2  and  N_9 
REMARK    3  A    between atoms: C_6  and  O_11 
ROOT
HETATM    1  C   UNL     1      62.460   7.819   4.540  1.00  0.00     0.017 A 
HETATM    2  N   UNL     1      63.612   7.280   6.612  1.00  0.00    -0.346 N 
ATOM      3  HN  UNL     1      63.593   6.902   7.560  1.00  0.00     0.167 HD
HETATM    4  C   UNL     1      62.501   7.310   5.836  1.00  0.00     0.104 A 
HETATM    5  C   UNL     1      64.745   7.773   6.070  1.00  0.00     0.141 A 
HETATM    6  C   UNL     1      63.654   8.323   4.015  1.00  0.00     0.020 A 
HETATM    7  C   UNL     1      64.814   8.301   4.791  1.00  0.00     0.057 A 
ENDROOT
BRANCH   1   8
HETATM    8  C   UNL     1      61.201   7.815   3.749  1.00  0.00     0.105 C 
HETATM    9  S   UNL     1      60.334   6.454   3.310  1.00  0.00    -0.060 SA
BRANCH   8  10
HETATM   10  N   UNL     1      60.709   9.034   3.357  1.00  0.00    -0.389 N 
HETATM   11  H   UNL     1      60.568   9.224   2.402  1.00  0.00     0.157 HD
HETATM   12  H   UNL     1      60.497   9.719   4.032  1.00  0.00     0.157 HD
ENDBRANCH   8  10
ENDBRANCH   1   8
BRANCH   5  13
HETATM   13  O   UNL     1      65.916   7.763   6.800  1.00  0.00    -0.341 OA
HETATM   14  C   UNL     1      65.971   6.688   7.735  1.00  0.00     0.211 C 
ENDBRANCH   5  13
TORSDOF 3
ENDMDL
MODEL 7
REMARK VINA RESULT:      -3.5      4.357      6.204
REMARK  3 active torsions:
REMARK  status: ('A' for Active; 'I' for Inactive)
REMARK    1  A    between atoms: C_1  and  C_2 
REMARK    2  A    between atoms: C_2  and  N_9 
REMARK    3  A    between atoms: C_6  and  O_11 
ROOT
HETATM    1  C   UNL     1      66.808   5.638   7.329  1.00  0.00     0.017 A 
HETATM    2  N   UNL     1      66.661   8.065   7.325  1.00  0.00    -0.346 N 
ATOM      3  HN  UNL     1      66.890   8.964   7.751  1.00  0.00     0.167 HD
HETATM    4  C   UNL     1      67.093   6.895   7.856  1.00  0.00     0.104 A 
HETATM    5  C   UNL     1      65.913   7.983   6.205  1.00  0.00     0.141 A 
HETATM    6  C   UNL     1      66.028   5.595   6.169  1.00  0.00     0.020 A 
HETATM    7  C   UNL     1      65.573   6.785   5.599  1.00  0.00     0.057 A 
ENDROOT
BRANCH   1   8
HETATM    8  C   UNL     1      67.322   4.399   7.969  1.00  0.00     0.105 C 
HETATM    9  S   UNL     1      67.067   2.841   7.416  1.00  0.00    -0.060 SA
BRANCH   8  10
HETATM   10  N   UNL     1      68.075   4.552   9.106  1.00  0.00    -0.389 N 
HETATM   11  H   UNL     1      68.645   3.815   9.422  1.00  0.00     0.157 HD
HETATM   12  H   UNL     1      68.044   5.401   9.605  1.00  0.00     0.157 HD
ENDBRANCH   8  10
ENDBRANCH   1   8
BRANCH   5  13
HETATM   13  O   UNL     1      65.450   9.136   5.604  1.00  0.00    -0.341 OA
HETATM   14  C   UNL     1      64.134   8.989   5.074  1.00  0.00     0.211 C 
ENDBRANCH   5  13
TORSDOF 3
ENDMDL
MODEL 8
REMARK VINA RESULT:      -3.5      2.063      2.473
REMARK  3 active torsions:
REMARK  status: ('A' for Active; 'I' for Inactive)
REMARK    1  A    between atoms: C_1  and  C_2 
REMARK    2  A    between atoms: C_2  and  N_9 
REMARK    3  A    between atoms: C_6  and  O_11 
ROOT
HETATM    1  C   UNL     1      63.525   8.147   5.173  1.00  0.00     0.017 A 
HETATM    2  N   UNL     1      64.476   6.843   6.992  1.00  0.00    -0.346 N 
ATOM      3  HN  UNL     1      64.349   6.237   7.803  1.00  0.00     0.167 HD
HETATM    4  C   UNL     1      63.420   7.310   6.282  1.00  0.00     0.104 A 
HETATM    5  C   UNL     1      65.702   7.220   6.575  1.00  0.00     0.141 A 
HETATM    6  C   UNL     1      64.813   8.516   4.773  1.00  0.00     0.020 A 
HETATM    7  C   UNL     1      65.918   8.046   5.485  1.00  0.00     0.057 A 
ENDROOT
BRANCH   1   8
HETATM    8  C   UNL     1      62.318   8.615   4.443  1.00  0.00     0.105 C 
HETATM    9  S   UNL     1      61.090   7.637   3.866  1.00  0.00    -0.060 SA
BRANCH   8  10
HETATM   10  N   UNL     1      62.202   9.966   4.236  1.00  0.00    -0.389 N 
HETATM   11  H   UNL     1      62.337  10.340   3.335  1.00  0.00     0.157 HD
HETATM   12  H   UNL     1      61.984  10.563   4.989  1.00  0.00     0.157 HD
ENDBRANCH   8  10
ENDBRANCH   1   8
BRANCH   5  13
HETATM   13  O   UNL     1      66.822   6.771   7.245  1.00  0.00    -0.341 OA
HETATM   14  C   UNL     1      66.537   6.362   8.581  1.00  0.00     0.211 C 
ENDBRANCH   5  13
TORSDOF 3
ENDMDL
MODEL 9
REMARK VINA RESULT:      -3.4      3.334      4.896
REMARK  3 active torsions:
REMARK  status: ('A' for Active; 'I' for Inactive)
REMARK    1  A    between atoms: C_1  and  C_2 
REMARK    2  A    between atoms: C_2  and  N_9 
REMARK    3  A    between atoms: C_6  and  O_11 
ROOT
HETATM    1  C   UNL     1      65.806   7.123   4.867  1.00  0.00     0.017 A 
HETATM    2  N   UNL     1      64.277   9.010   4.984  1.00  0.00    -0.346 N 
ATOM      3  HN  UNL     1      64.000   9.897   5.408  1.00  0.00     0.167 HD
HETATM    4  C   UNL     1      65.380   8.339   5.396  1.00  0.00     0.104 A 
HETATM    5  C   UNL     1      63.562   8.449   3.988  1.00  0.00     0.141 A 
HETATM    6  C   UNL     1      65.038   6.573   3.836  1.00  0.00     0.020 A 
HETATM    7  C   UNL     1      63.898   7.245   3.390  1.00  0.00     0.057 A 
ENDROOT
BRANCH   1   8
HETATM    8  C   UNL     1      67.031   6.449   5.371  1.00  0.00     0.105 C 
HETATM    9  S   UNL     1      67.316   4.802   5.340  1.00  0.00    -0.060 SA
BRANCH   8  10
HETATM   10  N   UNL     1      68.011   7.252   5.897  1.00  0.00    -0.389 N 
HETATM   11  H   UNL     1      68.803   6.850   6.320  1.00  0.00     0.157 HD
HETATM   12  H   UNL     1      67.920   8.232   5.853  1.00  0.00     0.157 HD
ENDBRANCH   8  10
ENDBRANCH   1   8
BRANCH   5  13
HETATM   13  O   UNL     1      62.434   9.084   3.511  1.00  0.00    -0.341 OA
HETATM   14  C   UNL     1      62.171  10.315   4.181  1.00  0.00     0.211 C 
ENDBRANCH   5  13
TORSDOF 3
ENDMDL
