MODEL 1
REMARK VINA RESULT:      -4.2      0.000      0.000
REMARK  2 active torsions:
REMARK  status: ('A' for Active; 'I' for Inactive)
REMARK    1  A    between atoms: C_1  and  O_6 
REMARK    2  A    between atoms: C_4  and  N_5 
ROOT
HETATM    1  C   UNL     1      62.019  10.429   3.931  1.00  0.00     0.168 A 
HETATM    2  N   UNL     1      61.381   9.490   3.194  1.00  0.00    -0.345 N 
ATOM      3  HN  UNL     1      60.817   9.736   2.381  1.00  0.00     0.167 HD
HETATM    4  C   UNL     1      62.762  10.159   5.094  1.00  0.00     0.077 A 
HETATM    5  C   UNL     1      61.531   8.210   3.593  1.00  0.00     0.090 A 
HETATM    6  C   UNL     1      62.924   8.816   5.434  1.00  0.00     0.035 A 
HETATM    7  C   UNL     1      62.288   7.826   4.688  1.00  0.00     0.019 A 
ENDROOT
BRANCH   4   8
HETATM    8  N   UNL     1      63.511  11.145   5.765  1.00  0.00    -0.396 N 
HETATM    9  H   UNL     1      63.917  10.943   6.638  1.00  0.00     0.156 HD
HETATM   10  H   UNL     1      63.626  12.035   5.362  1.00  0.00     0.156 HD
ENDBRANCH   4   8
BRANCH   1  11
HETATM   11  O   UNL     1      61.920  11.762   3.553  1.00  0.00    -0.339 OA
HETATM   12  C   UNL     1      61.744  11.920   2.149  1.00  0.00     0.211 C 
ENDBRANCH   1  11
TORSDOF 2
ENDMDL
MODEL 2
REMARK VINA RESULT:      -4.2      2.220      3.225
REMARK  2 active torsions:
REMARK  status: ('A' for Active; 'I' for Inactive)
REMARK    1  A    between atoms: C_1  and  O_6 
REMARK    2  A    between atoms: C_4  and  N_5 
ROOT
HETATM    1  C   UNL     1      64.019   9.350   5.022  1.00  0.00     0.168 A 
HETATM    2  N   UNL     1      63.742   8.441   4.058  1.00  0.00    -0.345 N 
ATOM      3  HN  UNL     1      64.303   7.598   3.937  1.00  0.00     0.167 HD
HETATM    4  C   UNL     1      63.321  10.556   5.202  1.00  0.00     0.077 A 
HETATM    5  C   UNL     1      62.685   8.710   3.265  1.00  0.00     0.090 A 
HETATM    6  C   UNL     1      62.208  10.762   4.387  1.00  0.00     0.035 A 
HETATM    7  C   UNL     1      61.892   9.839   3.392  1.00  0.00     0.019 A 
ENDROOT
BRANCH   4   8
HETATM    8  N   UNL     1      63.558  11.419   6.289  1.00  0.00    -0.396 N 
HETATM    9  H   UNL     1      62.887  12.094   6.537  1.00  0.00     0.156 HD
HETATM   10  H   UNL     1      64.396  11.348   6.800  1.00  0.00     0.156 HD
ENDBRANCH   4   8
BRANCH   1  11
HETATM   11  O   UNL     1      65.082   9.113   5.884  1.00  0.00    -0.339 OA
HETATM   12  C   UNL     1      65.863   7.988   5.492  1.00  0.00     0.211 C 
ENDBRANCH   1  11
TORSDOF 2
ENDMDL
MODEL 3
REMARK VINA RESULT:      -3.8      4.811      5.743
REMARK  2 active torsions:
REMARK  status: ('A' for Active; 'I' for Inactive)
REMARK    1  A    between atoms: C_1  and  O_6 
REMARK    2  A    between atoms: C_4  and  N_5 
ROOT
HETATM    1  C   UNL     1      66.170   7.746   6.372  1.00  0.00     0.168 A 
HETATM    2  N   UNL     1      65.453   7.122   7.337  1.00  0.00    -0.345 N 
ATOM      3  HN  UNL     1      64.589   7.520   7.706  1.00  0.00     0.167 HD
HETATM    4  C   UNL     1      67.395   7.278   5.865  1.00  0.00     0.077 A 
HETATM    5  C   UNL     1      65.942   5.948   7.784  1.00  0.00     0.090 A 
HETATM    6  C   UNL     1      67.831   6.037   6.327  1.00  0.00     0.035 A 
HETATM    7  C   UNL     1      67.107   5.367   7.313  1.00  0.00     0.019 A 
ENDROOT
BRANCH   4   8
HETATM    8  N   UNL     1      68.052   7.888   4.779  1.00  0.00    -0.396 N 
HETATM    9  H   UNL     1      67.606   7.944   3.903  1.00  0.00     0.156 HD
HETATM   10  H   UNL     1      68.958   8.256   4.894  1.00  0.00     0.156 HD
ENDBRANCH   4   8
BRANCH   1  11
HETATM   11  O   UNL     1      65.702   8.946   5.856  1.00  0.00    -0.339 OA
HETATM   12  C   UNL     1      64.511   8.786   5.092  1.00  0.00     0.211 C 
ENDBRANCH   1  11
TORSDOF 2
ENDMDL
MODEL 4
REMARK VINA RESULT:      -3.7      2.103      2.829
REMARK  2 active torsions:
REMARK  status: ('A' for Active; 'I' for Inactive)
REMARK    1  A    between atoms: C_1  and  O_6 
REMARK    2  A    between atoms: C_4  and  N_5 
ROOT
HETATM    1  C   UNL     1      62.304   9.449   2.361  1.00  0.00     0.168 A 
HETATM    2  N   UNL     1      62.857   8.429   3.060  1.00  0.00    -0.345 N 
ATOM      3  HN  UNL     1      63.062   7.529   2.626  1.00  0.00     0.167 HD
HETATM    4  C   UNL     1      61.945  10.690   2.915  1.00  0.00     0.077 A 
HETATM    5  C   UNL     1      63.123   8.667   4.360  1.00  0.00     0.090 A 
HETATM    6  C   UNL     1      62.286  10.900   4.251  1.00  0.00     0.035 A 
HETATM    7  C   UNL     1      62.866   9.872   4.993  1.00  0.00     0.019 A 
ENDROOT
BRANCH   4   8
HETATM    8  N   UNL     1      61.485  11.767   2.135  1.00  0.00    -0.396 N 
HETATM    9  H   UNL     1      60.567  12.102   2.251  1.00  0.00     0.156 HD
HETATM   10  H   UNL     1      62.080  12.185   1.472  1.00  0.00     0.156 HD
ENDBRANCH   4   8
BRANCH   1  11
HETATM   11  O   UNL     1      62.031   9.269   1.012  1.00  0.00    -0.339 OA
HETATM   12  C   UNL     1      60.947   8.372   0.788  1.00  0.00     0.211 C 
ENDBRANCH   1  11
TORSDOF 2
ENDMDL
MODEL 5
REMARK VINA RESULT:      -3.6      2.164      3.860
REMARK  2 active torsions:
REMARK  status: ('A' for Active; 'I' for Inactive)
REMARK    1  A    between atoms: C_1  and  O_6 
REMARK    2  A    between atoms: C_4  and  N_5 
ROOT
HETATM    1  C   UNL     1      63.503   8.960   4.689  1.00  0.00     0.168 A 
HETATM    2  N   UNL     1      63.529   9.912   5.651  1.00  0.00    -0.345 N 
ATOM      3  HN  UNL     1      64.054   9.786   6.517  1.00  0.00     0.167 HD
HETATM    4  C   UNL     1      62.753   9.049   3.503  1.00  0.00     0.077 A 
HETATM    5  C   UNL     1      62.824  11.035   5.405  1.00  0.00     0.090 A 
HETATM    6  C   UNL     1      62.081  10.250   3.277  1.00  0.00     0.035 A 
HETATM    7  C   UNL     1      62.099  11.252   4.245  1.00  0.00     0.019 A 
ENDROOT
BRANCH   4   8
HETATM    8  N   UNL     1      62.844   8.096   2.471  1.00  0.00    -0.396 N 
HETATM    9  H   UNL     1      62.496   8.306   1.575  1.00  0.00     0.156 HD
HETATM   10  H   UNL     1      63.255   7.218   2.646  1.00  0.00     0.156 HD
ENDBRANCH   4   8
BRANCH   1  11
HETATM   11  O   UNL     1      64.230   7.793   4.877  1.00  0.00    -0.339 OA
HETATM   12  C   UNL     1      65.612   8.042   5.115  1.00  0.00     0.211 C 
ENDBRANCH   1  11
TORSDOF 2
ENDMDL
MODEL 6
REMARK VINA RESULT:      -3.6      1.863      3.063
REMARK  2 active torsions:
REMARK  status: ('A' for Active; 'I' for Inactive)
REMARK    1  A    between atoms: C_1  and  O_6 
REMARK    2  A    between atoms: C_4  and  N_5 
ROOT
HETATM    1  C   UNL     1      62.885   9.223   4.177  1.00  0.00     0.168 A 
HETATM    2  N   UNL     1      62.800   8.272   3.217  1.00  0.00    -0.345 N 
ATOM      3  HN  UNL     1      63.163   7.329   3.361  1.00  0.00     0.167 HD
HETATM    4  C   UNL     1      62.457  10.553   4.018  1.00  0.00     0.077 A 
HETATM    5  C   UNL     1      62.209   8.636   2.061  1.00  0.00     0.090 A 
HETATM    6  C   UNL     1      61.811  10.863   2.821  1.00  0.00     0.035 A 
HETATM    7  C   UNL     1      61.699   9.901   1.820  1.00  0.00     0.019 A 
ENDROOT
BRANCH   4   8
HETATM    8  N   UNL     1      62.450  11.482   5.076  1.00  0.00    -0.396 N 
HETATM    9  H   UNL     1      61.727  12.146   5.142  1.00  0.00     0.156 HD
HETATM   10  H   UNL     1      63.169  11.468   5.748  1.00  0.00     0.156 HD
ENDBRANCH   4   8
BRANCH   1  11
HETATM   11  O   UNL     1      63.461   8.898   5.397  1.00  0.00    -0.339 OA
HETATM   12  C   UNL     1      62.868   7.748   5.993  1.00  0.00     0.211 C 
ENDBRANCH   1  11
TORSDOF 2
ENDMDL
MODEL 7
REMARK VINA RESULT:      -3.4      2.547      2.986
REMARK  2 active torsions:
REMARK  status: ('A' for Active; 'I' for Inactive)
REMARK    1  A    between atoms: C_1  and  O_6 
REMARK    2  A    between atoms: C_4  and  N_5 
ROOT
HETATM    1  C   UNL     1      64.025   8.925   4.941  1.00  0.00     0.168 A 
HETATM    2  N   UNL     1      63.202   8.692   3.892  1.00  0.00    -0.345 N 
ATOM      3  HN  UNL     1      62.423   9.313   3.671  1.00  0.00     0.167 HD
HETATM    4  C   UNL     1      65.076   8.077   5.331  1.00  0.00     0.077 A 
HETATM    5  C   UNL     1      63.465   7.594   3.154  1.00  0.00     0.090 A 
HETATM    6  C   UNL     1      65.335   6.982   4.506  1.00  0.00     0.035 A 
HETATM    7  C   UNL     1      64.510   6.723   3.413  1.00  0.00     0.019 A 
ENDROOT
BRANCH   4   8
HETATM    8  N   UNL     1      65.986   8.412   6.352  1.00  0.00    -0.396 N 
HETATM    9  H   UNL     1      65.712   8.347   7.295  1.00  0.00     0.156 HD
HETATM   10  H   UNL     1      66.895   8.711   6.122  1.00  0.00     0.156 HD
ENDBRANCH   4   8
BRANCH   1  11
HETATM   11  O   UNL     1      63.815  10.054   5.721  1.00  0.00    -0.339 OA
HETATM   12  C   UNL     1      62.782  10.889   5.209  1.00  0.00     0.211 C 
ENDBRANCH   1  11
TORSDOF 2
ENDMDL
MODEL 8
REMARK VINA RESULT:      -3.4      2.042      2.755
REMARK  2 active torsions:
REMARK  status: ('A' for Active; 'I' for Inactive)
REMARK    1  A    between atoms: C_1  and  O_6 
REMARK    2  A    between atoms: C_4  and  N_5 
ROOT
HETATM    1  C   UNL     1      62.054   9.364   3.051  1.00  0.00     0.168 A 
HETATM    2  N   UNL     1      61.625  10.647   3.111  1.00  0.00    -0.345 N 
ATOM      3  HN  UNL     1      61.028  11.049   2.387  1.00  0.00     0.167 HD
HETATM    4  C   UNL     1      62.922   8.772   3.984  1.00  0.00     0.077 A 
HETATM    5  C   UNL     1      62.029  11.366   4.178  1.00  0.00     0.090 A 
HETATM    6  C   UNL     1      63.271   9.544   5.092  1.00  0.00     0.035 A 
HETATM    7  C   UNL     1      62.836  10.865   5.185  1.00  0.00     0.019 A 
ENDROOT
BRANCH   4   8
HETATM    8  N   UNL     1      63.250   7.403   3.957  1.00  0.00    -0.396 N 
HETATM    9  H   UNL     1      64.160   7.120   3.712  1.00  0.00     0.156 HD
HETATM   10  H   UNL     1      62.569   6.729   4.181  1.00  0.00     0.156 HD
ENDBRANCH   4   8
BRANCH   1  11
HETATM   11  O   UNL     1      61.649   8.569   1.987  1.00  0.00    -0.339 OA
HETATM   12  C   UNL     1      62.181   9.010   0.742  1.00  0.00     0.211 C 
ENDBRANCH   1  11
TORSDOF 2
ENDMDL
MODEL 9
REMARK VINA RESULT:      -3.3      4.700      5.950
REMARK  2 active torsions:
REMARK  status: ('A' for Active; 'I' for Inactive)
REMARK    1  A    between atoms: C_1  and  O_6 
REMARK    2  A    between atoms: C_4  and  N_5 
ROOT
HETATM    1  C   UNL     1      65.976   7.239   7.013  1.00  0.00     0.168 A 
HETATM    2  N   UNL     1      64.634   7.066   7.054  1.00  0.00    -0.345 N 
ATOM      3  HN  UNL     1      64.157   6.760   7.902  1.00  0.00     0.167 HD
HETATM    4  C   UNL     1      66.696   7.601   5.861  1.00  0.00     0.077 A 
HETATM    5  C   UNL     1      63.960   7.321   5.914  1.00  0.00     0.090 A 
HETATM    6  C   UNL     1      65.947   7.899   4.723  1.00  0.00     0.035 A 
HETATM    7  C   UNL     1      64.562   7.741   4.739  1.00  0.00     0.019 A 
ENDROOT
BRANCH   4   8
HETATM    8  N   UNL     1      68.074   7.889   5.884  1.00  0.00    -0.396 N 
HETATM    9  H   UNL     1      68.517   8.240   5.078  1.00  0.00     0.156 HD
HETATM   10  H   UNL     1      68.595   7.737   6.705  1.00  0.00     0.156 HD
ENDBRANCH   4   8
BRANCH   1  11
HETATM   11  O   UNL     1      66.719   7.014   8.164  1.00  0.00    -0.339 OA
HETATM   12  C   UNL     1      66.375   5.791   8.807  1.00  0.00     0.211 C 
ENDBRANCH   1  11
TORSDOF 2
ENDMDL
