MODEL 1
REMARK VINA RESULT:      -5.8      0.000      0.000
REMARK  4 active torsions:
REMARK  status: ('A' for Active; 'I' for Inactive)
REMARK    1  A    between atoms: C_3  and  C_8 
REMARK    2  A    between atoms: C_4  and  C_9 
REMARK    3  A    between atoms: C_7  and  O_10 
REMARK    4  A    between atoms: O_10  and  C_17 
ROOT
HETATM    1  C   UNL     1      64.726   7.376   5.037  1.00  0.00    -0.002 A 
HETATM    2  C   UNL     1      64.567   5.994   5.234  1.00  0.00     0.017 A 
HETATM    3  C   UNL     1      65.786   8.012   5.693  1.00  0.00     0.017 A 
HETATM    4  C   UNL     1      66.547   5.899   6.626  1.00  0.00     0.078 A 
HETATM    5  C   UNL     1      65.462   5.262   6.030  1.00  0.00     0.038 A 
HETATM    6  C   UNL     1      66.681   7.281   6.481  1.00  0.00     0.038 A 
ENDROOT
BRANCH   1   7
HETATM    7  C   UNL     1      63.775   8.100   4.173  1.00  0.00     0.085 A 
HETATM    8  N   UNL     1      63.421   9.359   4.344  1.00  0.00    -0.347 N 
HETATM    9  C   UNL     1      62.503   9.747   3.370  1.00  0.00     0.085 A 
ATOM     10  HN  UNL     1      63.770   9.965   5.088  1.00  0.00     0.167 HD
HETATM   11  C   UNL     1      62.145   8.745   2.491  1.00  0.00     0.085 A 
HETATM   12  S   UNL     1      62.978   7.302   2.867  1.00  0.00    -0.081 SA
BRANCH   9  13
HETATM   13  C   UNL     1      61.975  11.115   3.304  1.00  0.00     0.172 C 
HETATM   14  O   UNL     1      61.757  11.772   4.322  1.00  0.00    -0.291 OA
HETATM   15  C   UNL     1      61.703  11.686   1.939  1.00  0.00     0.098 C 
ENDBRANCH   9  13
ENDBRANCH   1   7
BRANCH   4  16
HETATM   16  O   UNL     1      67.502   5.320   7.403  1.00  0.00    -0.255 OA
BRANCH  16  17
HETATM   17  C   UNL     1      67.369   5.336   8.816  1.00  0.00     0.530 C 
HETATM   18  F   UNL     1      66.094   5.404   9.252  1.00  0.00    -0.144 F 
HETATM   19  F   UNL     1      67.911   4.198   9.306  1.00  0.00    -0.144 F 
HETATM   20  F   UNL     1      68.061   6.381   9.320  1.00  0.00    -0.144 F 
ENDBRANCH  16  17
ENDBRANCH   4  16
TORSDOF 4
ENDMDL
MODEL 2
REMARK VINA RESULT:      -5.6      4.611      7.593
REMARK  4 active torsions:
REMARK  status: ('A' for Active; 'I' for Inactive)
REMARK    1  A    between atoms: C_3  and  C_8 
REMARK    2  A    between atoms: C_4  and  C_9 
REMARK    3  A    between atoms: C_7  and  O_10 
REMARK    4  A    between atoms: O_10  and  C_17 
ROOT
HETATM    1  C   UNL     1      64.639   7.901   5.137  1.00  0.00    -0.002 A 
HETATM    2  C   UNL     1      64.034   7.203   4.079  1.00  0.00     0.017 A 
HETATM    3  C   UNL     1      64.182   9.195   5.412  1.00  0.00     0.017 A 
HETATM    4  C   UNL     1      62.495   9.028   3.668  1.00  0.00     0.078 A 
HETATM    5  C   UNL     1      62.978   7.764   3.342  1.00  0.00     0.038 A 
HETATM    6  C   UNL     1      63.127   9.751   4.682  1.00  0.00     0.038 A 
ENDROOT
BRANCH   1   7
HETATM    7  C   UNL     1      65.729   7.263   5.899  1.00  0.00     0.085 A 
HETATM    8  N   UNL     1      65.753   7.145   7.212  1.00  0.00    -0.347 N 
HETATM    9  C   UNL     1      66.919   6.504   7.626  1.00  0.00     0.085 A 
ATOM     10  HN  UNL     1      65.018   7.477   7.838  1.00  0.00     0.167 HD
HETATM   11  C   UNL     1      67.787   6.182   6.603  1.00  0.00     0.085 A 
HETATM   12  S   UNL     1      67.136   6.662   5.099  1.00  0.00    -0.081 SA
BRANCH   9  13
HETATM   13  C   UNL     1      67.181   6.208   9.039  1.00  0.00     0.172 C 
HETATM   14  O   UNL     1      66.693   6.889   9.942  1.00  0.00    -0.291 OA
HETATM   15  C   UNL     1      68.075   5.038   9.347  1.00  0.00     0.098 C 
ENDBRANCH   9  13
ENDBRANCH   1   7
BRANCH   4  16
HETATM   16  O   UNL     1      61.473   9.688   3.061  1.00  0.00    -0.255 OA
BRANCH  16  17
HETATM   17  C   UNL     1      61.608  10.117   1.715  1.00  0.00     0.530 C 
HETATM   18  F   UNL     1      62.826   9.889   1.180  1.00  0.00    -0.144 F 
HETATM   19  F   UNL     1      60.699   9.454   0.964  1.00  0.00    -0.144 F 
HETATM   20  F   UNL     1      61.334  11.437   1.636  1.00  0.00    -0.144 F 
ENDBRANCH  16  17
ENDBRANCH   4  16
TORSDOF 4
ENDMDL
MODEL 3
REMARK VINA RESULT:      -5.5      3.336      4.297
REMARK  4 active torsions:
REMARK  status: ('A' for Active; 'I' for Inactive)
REMARK    1  A    between atoms: C_3  and  C_8 
REMARK    2  A    between atoms: C_4  and  C_9 
REMARK    3  A    between atoms: C_7  and  O_10 
REMARK    4  A    between atoms: O_10  and  C_17 
ROOT
HETATM    1  C   UNL     1      62.315   8.319   3.372  1.00  0.00    -0.002 A 
HETATM    2  C   UNL     1      63.388   7.419   3.266  1.00  0.00     0.017 A 
HETATM    3  C   UNL     1      62.406   9.335   4.331  1.00  0.00     0.017 A 
HETATM    4  C   UNL     1      64.636   8.605   4.970  1.00  0.00     0.078 A 
HETATM    5  C   UNL     1      64.535   7.552   4.065  1.00  0.00     0.038 A 
HETATM    6  C   UNL     1      63.551   9.471   5.121  1.00  0.00     0.038 A 
ENDROOT
BRANCH   1   7
HETATM    7  C   UNL     1      61.140   8.154   2.496  1.00  0.00     0.085 A 
HETATM    8  N   UNL     1      59.956   7.742   2.904  1.00  0.00    -0.347 N 
HETATM    9  C   UNL     1      59.061   7.685   1.837  1.00  0.00     0.085 A 
ATOM     10  HN  UNL     1      59.726   7.499   3.868  1.00  0.00     0.167 HD
HETATM   11  C   UNL     1      59.607   8.022   0.615  1.00  0.00     0.085 A 
HETATM   12  S   UNL     1      61.254   8.437   0.797  1.00  0.00    -0.081 SA
BRANCH   9  13
HETATM   13  C   UNL     1      57.658   7.295   2.021  1.00  0.00     0.172 C 
HETATM   14  O   UNL     1      56.884   7.204   1.067  1.00  0.00    -0.291 OA
HETATM   15  C   UNL     1      57.196   7.013   3.425  1.00  0.00     0.098 C 
ENDBRANCH   9  13
ENDBRANCH   1   7
BRANCH   4  16
HETATM   16  O   UNL     1      65.686   8.871   5.792  1.00  0.00    -0.255 OA
BRANCH  16  17
HETATM   17  C   UNL     1      66.261   7.830   6.567  1.00  0.00     0.530 C 
HETATM   18  F   UNL     1      67.085   7.015   5.875  1.00  0.00    -0.144 F 
HETATM   19  F   UNL     1      66.980   8.391   7.565  1.00  0.00    -0.144 F 
HETATM   20  F   UNL     1      65.277   7.090   7.122  1.00  0.00    -0.144 F 
ENDBRANCH  16  17
ENDBRANCH   4  16
TORSDOF 4
ENDMDL
MODEL 4
REMARK VINA RESULT:      -5.2      4.671      7.641
REMARK  4 active torsions:
REMARK  status: ('A' for Active; 'I' for Inactive)
REMARK    1  A    between atoms: C_3  and  C_8 
REMARK    2  A    between atoms: C_4  and  C_9 
REMARK    3  A    between atoms: C_7  and  O_10 
REMARK    4  A    between atoms: O_10  and  C_17 
ROOT
HETATM    1  C   UNL     1      64.294   7.626   4.204  1.00  0.00    -0.002 A 
HETATM    2  C   UNL     1      63.572   8.816   4.394  1.00  0.00     0.017 A 
HETATM    3  C   UNL     1      63.978   6.841   3.088  1.00  0.00     0.017 A 
HETATM    4  C   UNL     1      62.333   8.470   2.341  1.00  0.00     0.078 A 
HETATM    5  C   UNL     1      62.592   9.230   3.478  1.00  0.00     0.038 A 
HETATM    6  C   UNL     1      63.007   7.258   2.173  1.00  0.00     0.038 A 
ENDROOT
BRANCH   1   7
HETATM    7  C   UNL     1      65.330   7.241   5.180  1.00  0.00     0.085 A 
HETATM    8  N   UNL     1      65.084   6.693   6.353  1.00  0.00    -0.347 N 
HETATM    9  C   UNL     1      66.272   6.456   7.043  1.00  0.00     0.085 A 
ATOM     10  HN  UNL     1      64.153   6.473   6.708  1.00  0.00     0.167 HD
HETATM   11  C   UNL     1      67.409   6.875   6.383  1.00  0.00     0.085 A 
HETATM   12  S   UNL     1      66.999   7.554   4.870  1.00  0.00    -0.081 SA
BRANCH   9  13
HETATM   13  C   UNL     1      66.288   5.813   8.362  1.00  0.00     0.172 C 
HETATM   14  O   UNL     1      65.986   4.628   8.505  1.00  0.00    -0.291 OA
HETATM   15  C   UNL     1      66.686   6.660   9.540  1.00  0.00     0.098 C 
ENDBRANCH   9  13
ENDBRANCH   1   7
BRANCH   4  16
HETATM   16  O   UNL     1      61.434   8.753   1.362  1.00  0.00    -0.255 OA
BRANCH  16  17
HETATM   17  C   UNL     1      60.209   8.037   1.298  1.00  0.00     0.530 C 
HETATM   18  F   UNL     1      60.314   6.808   0.751  1.00  0.00    -0.144 F 
HETATM   19  F   UNL     1      59.738   7.888   2.557  1.00  0.00    -0.144 F 
HETATM   20  F   UNL     1      59.307   8.755   0.594  1.00  0.00    -0.144 F 
ENDBRANCH  16  17
ENDBRANCH   4  16
TORSDOF 4
ENDMDL
MODEL 5
REMARK VINA RESULT:      -5.2      4.662      7.783
REMARK  4 active torsions:
REMARK  status: ('A' for Active; 'I' for Inactive)
REMARK    1  A    between atoms: C_3  and  C_8 
REMARK    2  A    between atoms: C_4  and  C_9 
REMARK    3  A    between atoms: C_7  and  O_10 
REMARK    4  A    between atoms: O_10  and  C_17 
ROOT
HETATM    1  C   UNL     1      64.360   7.249   5.133  1.00  0.00    -0.002 A 
HETATM    2  C   UNL     1      64.175   8.637   5.029  1.00  0.00     0.017 A 
HETATM    3  C   UNL     1      63.445   6.417   4.479  1.00  0.00     0.017 A 
HETATM    4  C   UNL     1      62.266   8.339   3.568  1.00  0.00     0.078 A 
HETATM    5  C   UNL     1      63.132   9.180   4.262  1.00  0.00     0.038 A 
HETATM    6  C   UNL     1      62.410   6.957   3.710  1.00  0.00     0.038 A 
ENDROOT
BRANCH   1   7
HETATM    7  C   UNL     1      65.485   6.724   5.930  1.00  0.00     0.085 A 
HETATM    8  N   UNL     1      65.619   5.463   6.292  1.00  0.00    -0.347 N 
HETATM    9  C   UNL     1      66.780   5.289   7.043  1.00  0.00     0.085 A 
ATOM     10  HN  UNL     1      64.963   4.718   6.055  1.00  0.00     0.167 HD
HETATM   11  C   UNL     1      67.491   6.449   7.273  1.00  0.00     0.085 A 
HETATM   12  S   UNL     1      66.717   7.776   6.525  1.00  0.00    -0.081 SA
BRANCH   9  13
HETATM   13  C   UNL     1      67.192   3.971   7.539  1.00  0.00     0.172 C 
HETATM   14  O   UNL     1      66.862   3.570   8.657  1.00  0.00    -0.291 OA
HETATM   15  C   UNL     1      68.040   3.123   6.630  1.00  0.00     0.098 C 
ENDBRANCH   9  13
ENDBRANCH   1   7
BRANCH   4  16
HETATM   16  O   UNL     1      61.229   8.717   2.775  1.00  0.00    -0.255 OA
BRANCH  16  17
HETATM   17  C   UNL     1      61.479   9.190   1.460  1.00  0.00     0.530 C 
HETATM   18  F   UNL     1      60.507   8.898   0.571  1.00  0.00    -0.144 F 
HETATM   19  F   UNL     1      61.600  10.537   1.508  1.00  0.00    -0.144 F 
HETATM   20  F   UNL     1      62.648   8.680   1.015  1.00  0.00    -0.144 F 
ENDBRANCH  16  17
ENDBRANCH   4  16
TORSDOF 4
ENDMDL
MODEL 6
REMARK VINA RESULT:      -5.1      4.407      7.672
REMARK  4 active torsions:
REMARK  status: ('A' for Active; 'I' for Inactive)
REMARK    1  A    between atoms: C_3  and  C_8 
REMARK    2  A    between atoms: C_4  and  C_9 
REMARK    3  A    between atoms: C_7  and  O_10 
REMARK    4  A    between atoms: O_10  and  C_17 
ROOT
HETATM    1  C   UNL     1      64.982   6.934   6.430  1.00  0.00    -0.002 A 
HETATM    2  C   UNL     1      63.625   6.585   6.336  1.00  0.00     0.017 A 
HETATM    3  C   UNL     1      65.411   8.080   5.749  1.00  0.00     0.017 A 
HETATM    4  C   UNL     1      63.146   8.547   4.998  1.00  0.00     0.078 A 
HETATM    5  C   UNL     1      62.715   7.377   5.618  1.00  0.00     0.038 A 
HETATM    6  C   UNL     1      64.503   8.872   5.040  1.00  0.00     0.038 A 
ENDROOT
BRANCH   1   7
HETATM    7  C   UNL     1      65.898   6.085   7.215  1.00  0.00     0.085 A 
HETATM    8  N   UNL     1      66.020   4.781   7.064  1.00  0.00    -0.347 N 
HETATM    9  C   UNL     1      66.959   4.270   7.958  1.00  0.00     0.085 A 
ATOM     10  HN  UNL     1      65.499   4.223   6.387  1.00  0.00     0.167 HD
HETATM   11  C   UNL     1      67.508   5.208   8.809  1.00  0.00     0.085 A 
HETATM   12  S   UNL     1      66.863   6.755   8.479  1.00  0.00    -0.081 SA
BRANCH   9  13
HETATM   13  C   UNL     1      67.319   2.847   7.976  1.00  0.00     0.172 C 
HETATM   14  O   UNL     1      67.020   2.118   8.922  1.00  0.00    -0.291 OA
HETATM   15  C   UNL     1      68.075   2.310   6.791  1.00  0.00     0.098 C 
ENDBRANCH   9  13
ENDBRANCH   1   7
BRANCH   4  16
HETATM   16  O   UNL     1      62.381   9.419   4.289  1.00  0.00    -0.255 OA
BRANCH  16  17
HETATM   17  C   UNL     1      62.134   9.185   2.911  1.00  0.00     0.530 C 
HETATM   18  F   UNL     1      62.287  10.274   2.128  1.00  0.00    -0.144 F 
HETATM   19  F   UNL     1      63.003   8.243   2.478  1.00  0.00    -0.144 F 
HETATM   20  F   UNL     1      60.882   8.705   2.755  1.00  0.00    -0.144 F 
ENDBRANCH  16  17
ENDBRANCH   4  16
TORSDOF 4
ENDMDL
MODEL 7
REMARK VINA RESULT:      -4.9      5.062      7.595
REMARK  4 active torsions:
REMARK  status: ('A' for Active; 'I' for Inactive)
REMARK    1  A    between atoms: C_3  and  C_8 
REMARK    2  A    between atoms: C_4  and  C_9 
REMARK    3  A    between atoms: C_7  and  O_10 
REMARK    4  A    between atoms: O_10  and  C_17 
ROOT
HETATM    1  C   UNL     1      62.412   6.948   5.395  1.00  0.00    -0.002 A 
HETATM    2  C   UNL     1      61.587   6.140   6.195  1.00  0.00     0.017 A 
HETATM    3  C   UNL     1      61.870   7.472   4.216  1.00  0.00     0.017 A 
HETATM    4  C   UNL     1      59.706   6.475   4.705  1.00  0.00     0.078 A 
HETATM    5  C   UNL     1      60.248   5.896   5.849  1.00  0.00     0.038 A 
HETATM    6  C   UNL     1      60.535   7.234   3.876  1.00  0.00     0.038 A 
ENDROOT
BRANCH   1   7
HETATM    7  C   UNL     1      63.805   7.196   5.810  1.00  0.00     0.085 A 
HETATM    8  N   UNL     1      64.417   6.564   6.792  1.00  0.00    -0.347 N 
HETATM    9  C   UNL     1      65.721   7.031   6.940  1.00  0.00     0.085 A 
ATOM     10  HN  UNL     1      63.992   5.833   7.365  1.00  0.00     0.167 HD
HETATM   11  C   UNL     1      66.063   8.053   6.079  1.00  0.00     0.085 A 
HETATM   12  S   UNL     1      64.750   8.427   5.052  1.00  0.00    -0.081 SA
BRANCH   9  13
HETATM   13  C   UNL     1      66.638   6.467   7.938  1.00  0.00     0.172 C 
HETATM   14  O   UNL     1      66.363   6.465   9.138  1.00  0.00    -0.291 OA
HETATM   15  C   UNL     1      67.936   5.892   7.438  1.00  0.00     0.098 C 
ENDBRANCH   9  13
ENDBRANCH   1   7
BRANCH   4  16
HETATM   16  O   UNL     1      58.429   6.346   4.256  1.00  0.00    -0.255 OA
BRANCH  16  17
HETATM   17  C   UNL     1      57.413   7.203   4.755  1.00  0.00     0.530 C 
HETATM   18  F   UNL     1      57.631   8.514   4.522  1.00  0.00    -0.144 F 
HETATM   19  F   UNL     1      56.245   6.869   4.161  1.00  0.00    -0.144 F 
HETATM   20  F   UNL     1      57.278   7.011   6.085  1.00  0.00    -0.144 F 
ENDBRANCH  16  17
ENDBRANCH   4  16
TORSDOF 4
ENDMDL
MODEL 8
REMARK VINA RESULT:      -4.7      4.714      5.413
REMARK  4 active torsions:
REMARK  status: ('A' for Active; 'I' for Inactive)
REMARK    1  A    between atoms: C_3  and  C_8 
REMARK    2  A    between atoms: C_4  and  C_9 
REMARK    3  A    between atoms: C_7  and  O_10 
REMARK    4  A    between atoms: O_10  and  C_17 
ROOT
HETATM    1  C   UNL     1      62.504   6.720   5.968  1.00  0.00    -0.002 A 
HETATM    2  C   UNL     1      62.696   7.897   5.228  1.00  0.00     0.017 A 
HETATM    3  C   UNL     1      63.636   6.084   6.491  1.00  0.00     0.017 A 
HETATM    4  C   UNL     1      65.085   7.836   5.627  1.00  0.00     0.078 A 
HETATM    5  C   UNL     1      63.976   8.447   5.048  1.00  0.00     0.038 A 
HETATM    6  C   UNL     1      64.909   6.635   6.318  1.00  0.00     0.038 A 
ENDROOT
BRANCH   1   7
HETATM    7  C   UNL     1      61.139   6.191   6.151  1.00  0.00     0.085 A 
HETATM    8  N   UNL     1      60.518   6.112   7.311  1.00  0.00    -0.347 N 
HETATM    9  C   UNL     1      59.248   5.562   7.152  1.00  0.00     0.085 A 
ATOM     10  HN  UNL     1      60.914   6.412   8.203  1.00  0.00     0.167 HD
HETATM   11  C   UNL     1      58.944   5.193   5.857  1.00  0.00     0.085 A 
HETATM   12  S   UNL     1      60.249   5.554   4.816  1.00  0.00    -0.081 SA
BRANCH   9  13
HETATM   13  C   UNL     1      58.326   5.398   8.282  1.00  0.00     0.172 C 
HETATM   14  O   UNL     1      58.721   5.439   9.448  1.00  0.00    -0.291 OA
HETATM   15  C   UNL     1      56.873   5.174   7.963  1.00  0.00     0.098 C 
ENDBRANCH   9  13
ENDBRANCH   1   7
BRANCH   4  16
HETATM   16  O   UNL     1      66.375   8.260   5.557  1.00  0.00    -0.255 OA
BRANCH  16  17
HETATM   17  C   UNL     1      67.289   7.603   4.693  1.00  0.00     0.530 C 
HETATM   18  F   UNL     1      68.075   6.693   5.306  1.00  0.00    -0.144 F 
HETATM   19  F   UNL     1      66.582   6.957   3.737  1.00  0.00    -0.144 F 
HETATM   20  F   UNL     1      68.072   8.521   4.087  1.00  0.00    -0.144 F 
ENDBRANCH  16  17
ENDBRANCH   4  16
TORSDOF 4
ENDMDL
MODEL 9
REMARK VINA RESULT:      -4.7      4.310      7.691
REMARK  4 active torsions:
REMARK  status: ('A' for Active; 'I' for Inactive)
REMARK    1  A    between atoms: C_3  and  C_8 
REMARK    2  A    between atoms: C_4  and  C_9 
REMARK    3  A    between atoms: C_7  and  O_10 
REMARK    4  A    between atoms: O_10  and  C_17 
ROOT
HETATM    1  C   UNL     1      65.330   6.189   5.926  1.00  0.00    -0.002 A 
HETATM    2  C   UNL     1      65.857   7.348   5.331  1.00  0.00     0.017 A 
HETATM    3  C   UNL     1      63.977   6.196   6.284  1.00  0.00     0.017 A 
HETATM    4  C   UNL     1      63.691   8.431   5.371  1.00  0.00     0.078 A 
HETATM    5  C   UNL     1      65.048   8.464   5.065  1.00  0.00     0.038 A 
HETATM    6  C   UNL     1      63.171   7.305   6.012  1.00  0.00     0.038 A 
ENDROOT
BRANCH   1   7
HETATM    7  C   UNL     1      66.211   5.031   6.165  1.00  0.00     0.085 A 
HETATM    8  N   UNL     1      66.302   4.386   7.312  1.00  0.00    -0.347 N 
HETATM    9  C   UNL     1      67.226   3.347   7.219  1.00  0.00     0.085 A 
ATOM     10  HN  UNL     1      65.769   4.617   8.151  1.00  0.00     0.167 HD
HETATM   11  C   UNL     1      67.856   3.250   5.994  1.00  0.00     0.085 A 
HETATM   12  S   UNL     1      67.276   4.457   4.934  1.00  0.00    -0.081 SA
BRANCH   9  13
HETATM   13  C   UNL     1      67.491   2.441   8.343  1.00  0.00     0.172 C 
HETATM   14  O   UNL     1      67.398   2.821   9.511  1.00  0.00    -0.291 OA
HETATM   15  C   UNL     1      67.885   1.027   8.015  1.00  0.00     0.098 C 
ENDBRANCH   9  13
ENDBRANCH   1   7
BRANCH   4  16
HETATM   16  O   UNL     1      62.785   9.423   5.155  1.00  0.00    -0.255 OA
BRANCH  16  17
HETATM   17  C   UNL     1      62.051   9.458   3.940  1.00  0.00     0.530 C 
HETATM   18  F   UNL     1      60.989   8.625   3.911  1.00  0.00    -0.144 F 
HETATM   19  F   UNL     1      61.591  10.717   3.758  1.00  0.00    -0.144 F 
HETATM   20  F   UNL     1      62.872   9.158   2.911  1.00  0.00    -0.144 F 
ENDBRANCH  16  17
ENDBRANCH   4  16
TORSDOF 4
ENDMDL
