MODEL 1
REMARK VINA RESULT:      -6.0      0.000      0.000
REMARK  3 active torsions:
REMARK  status: ('A' for Active; 'I' for Inactive)
REMARK    1  A    between atoms: C_3  and  C_8 
REMARK    2  A    between atoms: C_4  and  C_10 
REMARK    3  A    between atoms: C_6  and  C_9 
ROOT
HETATM    1  C   UNL     1      62.611   8.863   2.855  1.00  0.00     0.048 A 
HETATM    2  C   UNL     1      63.942   7.391   4.881  1.00  0.00    -0.002 A 
HETATM    3  C   UNL     1      63.005   7.537   2.632  1.00  0.00     0.017 A 
HETATM    4  C   UNL     1      62.886   9.447   4.100  1.00  0.00     0.017 A 
HETATM    5  C   UNL     1      63.668   6.815   3.631  1.00  0.00     0.015 A 
HETATM    6  C   UNL     1      63.546   8.720   5.097  1.00  0.00     0.015 A 
ENDROOT
BRANCH   2   7
HETATM    7  C   UNL     1      64.641   6.595   5.908  1.00  0.00     0.085 A 
HETATM    8  N   UNL     1      65.226   7.103   6.978  1.00  0.00    -0.347 N 
HETATM    9  C   UNL     1      65.801   6.093   7.749  1.00  0.00     0.085 A 
ATOM     10  HN  UNL     1      65.253   8.097   7.209  1.00  0.00     0.167 HD
HETATM   11  C   UNL     1      65.665   4.825   7.217  1.00  0.00     0.085 A 
HETATM   12  S   UNL     1      64.796   4.885   5.748  1.00  0.00    -0.081 SA
BRANCH   9  13
HETATM   13  C   UNL     1      66.490   6.367   9.011  1.00  0.00     0.172 C 
HETATM   14  O   UNL     1      65.894   6.838   9.983  1.00  0.00    -0.291 OA
HETATM   15  C   UNL     1      67.961   6.058   9.088  1.00  0.00     0.098 C 
ENDBRANCH   9  13
ENDBRANCH   2   7
BRANCH   1  16
HETATM   16  C   UNL     1      61.912   9.668   1.786  1.00  0.00     0.417 C 
HETATM   17  F   UNL     1      61.656  10.956   2.151  1.00  0.00    -0.166 F 
HETATM   18  F   UNL     1      62.635   9.743   0.634  1.00  0.00    -0.166 F 
HETATM   19  F   UNL     1      60.709   9.134   1.437  1.00  0.00    -0.166 F 
ENDBRANCH   1  16
TORSDOF 3
ENDMDL
MODEL 2
REMARK VINA RESULT:      -5.9      0.124      1.142
REMARK  3 active torsions:
REMARK  status: ('A' for Active; 'I' for Inactive)
REMARK    1  A    between atoms: C_3  and  C_8 
REMARK    2  A    between atoms: C_4  and  C_10 
REMARK    3  A    between atoms: C_6  and  C_9 
ROOT
HETATM    1  C   UNL     1      62.683   8.775   2.852  1.00  0.00     0.048 A 
HETATM    2  C   UNL     1      63.993   7.247   4.851  1.00  0.00    -0.002 A 
HETATM    3  C   UNL     1      62.920   9.315   4.123  1.00  0.00     0.017 A 
HETATM    4  C   UNL     1      63.107   7.465   2.588  1.00  0.00     0.017 A 
HETATM    5  C   UNL     1      63.561   8.556   5.110  1.00  0.00     0.015 A 
HETATM    6  C   UNL     1      63.750   6.711   3.577  1.00  0.00     0.015 A 
ENDROOT
BRANCH   2   7
HETATM    7  C   UNL     1      64.666   6.482   5.917  1.00  0.00     0.085 A 
HETATM    8  N   UNL     1      65.241   7.021   6.977  1.00  0.00    -0.347 N 
HETATM    9  C   UNL     1      65.792   6.032   7.793  1.00  0.00     0.085 A 
ATOM     10  HN  UNL     1      65.277   8.022   7.171  1.00  0.00     0.167 HD
HETATM   11  C   UNL     1      65.647   4.748   7.306  1.00  0.00     0.085 A 
HETATM   12  S   UNL     1      64.802   4.764   5.822  1.00  0.00    -0.081 SA
BRANCH   9  13
HETATM   13  C   UNL     1      66.464   6.345   9.055  1.00  0.00     0.172 C 
HETATM   14  O   UNL     1      65.853   6.830  10.010  1.00  0.00    -0.291 OA
HETATM   15  C   UNL     1      67.939   6.057   9.154  1.00  0.00     0.098 C 
ENDBRANCH   9  13
ENDBRANCH   2   7
BRANCH   1  16
HETATM   16  C   UNL     1      61.977   9.566   1.778  1.00  0.00     0.417 C 
HETATM   17  F   UNL     1      61.787  10.877   2.100  1.00  0.00    -0.166 F 
HETATM   18  F   UNL     1      62.658   9.567   0.598  1.00  0.00    -0.166 F 
HETATM   19  F   UNL     1      60.742   9.068   1.494  1.00  0.00    -0.166 F 
ENDBRANCH   1  16
TORSDOF 3
ENDMDL
MODEL 3
REMARK VINA RESULT:      -5.4      5.025      7.246
REMARK  3 active torsions:
REMARK  status: ('A' for Active; 'I' for Inactive)
REMARK    1  A    between atoms: C_3  and  C_8 
REMARK    2  A    between atoms: C_4  and  C_10 
REMARK    3  A    between atoms: C_6  and  C_9 
ROOT
HETATM    1  C   UNL     1      66.372   6.071   7.452  1.00  0.00     0.048 A 
HETATM    2  C   UNL     1      64.712   7.377   5.559  1.00  0.00    -0.002 A 
HETATM    3  C   UNL     1      66.720   7.330   6.946  1.00  0.00     0.017 A 
HETATM    4  C   UNL     1      65.187   5.470   7.005  1.00  0.00     0.017 A 
HETATM    5  C   UNL     1      65.902   7.969   6.007  1.00  0.00     0.015 A 
HETATM    6  C   UNL     1      64.371   6.114   6.068  1.00  0.00     0.015 A 
ENDROOT
BRANCH   2   7
HETATM    7  C   UNL     1      63.877   8.085   4.570  1.00  0.00     0.085 A 
HETATM    8  N   UNL     1      63.395   9.303   4.733  1.00  0.00    -0.347 N 
HETATM    9  C   UNL     1      62.642   9.686   3.623  1.00  0.00     0.085 A 
ATOM     10  HN  UNL     1      63.552   9.885   5.557  1.00  0.00     0.167 HD
HETATM   11  C   UNL     1      62.543   8.717   2.643  1.00  0.00     0.085 A 
HETATM   12  S   UNL     1      63.409   7.318   3.098  1.00  0.00    -0.081 SA
BRANCH   9  13
HETATM   13  C   UNL     1      62.015  11.005   3.519  1.00  0.00     0.172 C 
HETATM   14  O   UNL     1      61.985  11.783   4.474  1.00  0.00    -0.291 OA
HETATM   15  C   UNL     1      61.400  11.385   2.198  1.00  0.00     0.098 C 
ENDBRANCH   9  13
ENDBRANCH   2   7
BRANCH   1  16
HETATM   16  C   UNL     1      67.247   5.353   8.451  1.00  0.00     0.417 C 
HETATM   17  F   UNL     1      68.074   4.427   7.888  1.00  0.00    -0.166 F 
HETATM   18  F   UNL     1      68.055   6.203   9.142  1.00  0.00    -0.166 F 
HETATM   19  F   UNL     1      66.522   4.683   9.390  1.00  0.00    -0.166 F 
ENDBRANCH   1  16
TORSDOF 3
ENDMDL
MODEL 4
REMARK VINA RESULT:      -5.3      5.072      7.185
REMARK  3 active torsions:
REMARK  status: ('A' for Active; 'I' for Inactive)
REMARK    1  A    between atoms: C_3  and  C_8 
REMARK    2  A    between atoms: C_4  and  C_10 
REMARK    3  A    between atoms: C_6  and  C_9 
ROOT
HETATM    1  C   UNL     1      65.510   7.782   4.909  1.00  0.00     0.048 A 
HETATM    2  C   UNL     1      63.175   7.847   3.301  1.00  0.00    -0.002 A 
HETATM    3  C   UNL     1      64.571   8.812   5.055  1.00  0.00     0.017 A 
HETATM    4  C   UNL     1      65.272   6.785   3.954  1.00  0.00     0.017 A 
HETATM    5  C   UNL     1      63.423   8.846   4.255  1.00  0.00     0.015 A 
HETATM    6  C   UNL     1      64.121   6.820   3.159  1.00  0.00     0.015 A 
ENDROOT
BRANCH   2   7
HETATM    7  C   UNL     1      61.952   7.918   2.479  1.00  0.00     0.085 A 
HETATM    8  N   UNL     1      60.741   7.618   2.913  1.00  0.00    -0.347 N 
HETATM    9  C   UNL     1      59.801   7.781   1.895  1.00  0.00     0.085 A 
ATOM     10  HN  UNL     1      60.523   7.311   3.861  1.00  0.00     0.167 HD
HETATM   11  C   UNL     1      60.337   8.174   0.684  1.00  0.00     0.085 A 
HETATM   12  S   UNL     1      62.029   8.360   0.814  1.00  0.00    -0.081 SA
BRANCH   9  13
HETATM   13  C   UNL     1      58.371   7.550   2.106  1.00  0.00     0.172 C 
HETATM   14  O   UNL     1      57.580   7.485   1.162  1.00  0.00    -0.291 OA
HETATM   15  C   UNL     1      57.888   7.394   3.524  1.00  0.00     0.098 C 
ENDBRANCH   9  13
ENDBRANCH   2   7
BRANCH   1  16
HETATM   16  C   UNL     1      66.766   7.736   5.746  1.00  0.00     0.417 C 
HETATM   17  F   UNL     1      67.062   6.492   6.219  1.00  0.00    -0.166 F 
HETATM   18  F   UNL     1      67.867   8.145   5.058  1.00  0.00    -0.166 F 
HETATM   19  F   UNL     1      66.690   8.542   6.841  1.00  0.00    -0.166 F 
ENDBRANCH   1  16
TORSDOF 3
ENDMDL
MODEL 5
REMARK VINA RESULT:      -5.3      2.252      2.960
REMARK  3 active torsions:
REMARK  status: ('A' for Active; 'I' for Inactive)
REMARK    1  A    between atoms: C_3  and  C_8 
REMARK    2  A    between atoms: C_4  and  C_10 
REMARK    3  A    between atoms: C_6  and  C_9 
ROOT
HETATM    1  C   UNL     1      63.216   8.447   4.814  1.00  0.00     0.048 A 
HETATM    2  C   UNL     1      65.052   6.970   6.394  1.00  0.00    -0.002 A 
HETATM    3  C   UNL     1      62.837   7.234   5.403  1.00  0.00     0.017 A 
HETATM    4  C   UNL     1      64.521   8.917   5.022  1.00  0.00     0.017 A 
HETATM    5  C   UNL     1      63.747   6.503   6.176  1.00  0.00     0.015 A 
HETATM    6  C   UNL     1      65.426   8.186   5.799  1.00  0.00     0.015 A 
ENDROOT
BRANCH   2   7
HETATM    7  C   UNL     1      65.980   6.172   7.216  1.00  0.00     0.085 A 
HETATM    8  N   UNL     1      66.100   4.859   7.148  1.00  0.00    -0.347 N 
HETATM    9  C   UNL     1      67.056   4.405   8.057  1.00  0.00     0.085 A 
ATOM     10  HN  UNL     1      65.567   4.259   6.518  1.00  0.00     0.167 HD
HETATM   11  C   UNL     1      67.623   5.401   8.829  1.00  0.00     0.085 A 
HETATM   12  S   UNL     1      66.973   6.923   8.411  1.00  0.00    -0.081 SA
BRANCH   9  13
HETATM   13  C   UNL     1      67.417   2.991   8.173  1.00  0.00     0.172 C 
HETATM   14  O   UNL     1      67.204   2.352   9.206  1.00  0.00    -0.291 OA
HETATM   15  C   UNL     1      68.066   2.334   6.984  1.00  0.00     0.098 C 
ENDBRANCH   9  13
ENDBRANCH   2   7
BRANCH   1  16
HETATM   16  C   UNL     1      62.259   9.243   3.960  1.00  0.00     0.417 C 
HETATM   17  F   UNL     1      62.598   9.272   2.641  1.00  0.00    -0.166 F 
HETATM   18  F   UNL     1      60.988   8.755   4.008  1.00  0.00    -0.166 F 
HETATM   19  F   UNL     1      62.172  10.544   4.352  1.00  0.00    -0.166 F 
ENDBRANCH   1  16
TORSDOF 3
ENDMDL
MODEL 6
REMARK VINA RESULT:      -4.9      5.231      7.300
REMARK  3 active torsions:
REMARK  status: ('A' for Active; 'I' for Inactive)
REMARK    1  A    between atoms: C_3  and  C_8 
REMARK    2  A    between atoms: C_4  and  C_10 
REMARK    3  A    between atoms: C_6  and  C_9 
ROOT
HETATM    1  C   UNL     1      66.087   6.582   7.051  1.00  0.00     0.048 A 
HETATM    2  C   UNL     1      64.339   7.747   5.145  1.00  0.00    -0.002 A 
HETATM    3  C   UNL     1      64.940   5.900   6.623  1.00  0.00     0.017 A 
HETATM    4  C   UNL     1      66.353   7.851   6.518  1.00  0.00     0.017 A 
HETATM    5  C   UNL     1      64.076   6.480   5.687  1.00  0.00     0.015 A 
HETATM    6  C   UNL     1      65.488   8.426   5.580  1.00  0.00     0.015 A 
ENDROOT
BRANCH   2   7
HETATM    7  C   UNL     1      63.404   8.323   4.160  1.00  0.00     0.085 A 
HETATM    8  N   UNL     1      63.100   7.765   3.002  1.00  0.00    -0.347 N 
HETATM    9  C   UNL     1      62.194   8.558   2.298  1.00  0.00     0.085 A 
ATOM     10  HN  UNL     1      63.477   6.877   2.668  1.00  0.00     0.167 HD
HETATM   11  C   UNL     1      61.853   9.735   2.937  1.00  0.00     0.085 A 
HETATM   12  S   UNL     1      62.655   9.852   4.439  1.00  0.00    -0.081 SA
BRANCH   9  13
HETATM   13  C   UNL     1      61.658   8.165   0.993  1.00  0.00     0.172 C 
HETATM   14  O   UNL     1      60.619   8.655   0.546  1.00  0.00    -0.291 OA
HETATM   15  C   UNL     1      62.421   7.132   0.206  1.00  0.00     0.098 C 
ENDBRANCH   9  13
ENDBRANCH   2   7
BRANCH   1  16
HETATM   16  C   UNL     1      67.024   5.986   8.074  1.00  0.00     0.417 C 
HETATM   17  F   UNL     1      67.686   6.916   8.818  1.00  0.00    -0.166 F 
HETATM   18  F   UNL     1      66.379   5.184   8.966  1.00  0.00    -0.166 F 
HETATM   19  F   UNL     1      67.987   5.209   7.504  1.00  0.00    -0.166 F 
ENDBRANCH   1  16
TORSDOF 3
ENDMDL
MODEL 7
REMARK VINA RESULT:      -4.9      2.444      2.874
REMARK  3 active torsions:
REMARK  status: ('A' for Active; 'I' for Inactive)
REMARK    1  A    between atoms: C_3  and  C_8 
REMARK    2  A    between atoms: C_4  and  C_10 
REMARK    3  A    between atoms: C_6  and  C_9 
ROOT
HETATM    1  C   UNL     1      60.348   7.356   3.889  1.00  0.00     0.048 A 
HETATM    2  C   UNL     1      62.878   7.292   5.169  1.00  0.00    -0.002 A 
HETATM    3  C   UNL     1      60.576   6.504   4.977  1.00  0.00     0.017 A 
HETATM    4  C   UNL     1      61.395   8.176   3.445  1.00  0.00     0.017 A 
HETATM    5  C   UNL     1      61.828   6.470   5.603  1.00  0.00     0.015 A 
HETATM    6  C   UNL     1      62.644   8.141   4.076  1.00  0.00     0.015 A 
ENDROOT
BRANCH   2   7
HETATM    7  C   UNL     1      64.182   7.228   5.857  1.00  0.00     0.085 A 
HETATM    8  N   UNL     1      64.464   6.403   6.849  1.00  0.00    -0.347 N 
HETATM    9  C   UNL     1      65.776   6.592   7.286  1.00  0.00     0.085 A 
ATOM     10  HN  UNL     1      63.813   5.723   7.242  1.00  0.00     0.167 HD
HETATM   11  C   UNL     1      66.456   7.596   6.624  1.00  0.00     0.085 A 
HETATM   12  S   UNL     1      65.460   8.305   5.432  1.00  0.00    -0.081 SA
BRANCH   9  13
HETATM   13  C   UNL     1      66.367   5.788   8.356  1.00  0.00     0.172 C 
HETATM   14  O   UNL     1      66.043   4.612   8.536  1.00  0.00    -0.291 OA
HETATM   15  C   UNL     1      67.391   6.446   9.243  1.00  0.00     0.098 C 
ENDBRANCH   9  13
ENDBRANCH   2   7
BRANCH   1  16
HETATM   16  C   UNL     1      59.013   7.396   3.185  1.00  0.00     0.417 C 
HETATM   17  F   UNL     1      59.072   7.924   1.930  1.00  0.00    -0.166 F 
HETATM   18  F   UNL     1      58.460   6.160   3.044  1.00  0.00    -0.166 F 
HETATM   19  F   UNL     1      58.093   8.140   3.860  1.00  0.00    -0.166 F 
ENDBRANCH   1  16
TORSDOF 3
ENDMDL
MODEL 8
REMARK VINA RESULT:      -4.8      4.977      7.025
REMARK  3 active torsions:
REMARK  status: ('A' for Active; 'I' for Inactive)
REMARK    1  A    between atoms: C_3  and  C_8 
REMARK    2  A    between atoms: C_4  and  C_10 
REMARK    3  A    between atoms: C_6  and  C_9 
ROOT
HETATM    1  C   UNL     1      65.340   7.596   5.959  1.00  0.00     0.048 A 
HETATM    2  C   UNL     1      62.786   7.190   4.794  1.00  0.00    -0.002 A 
HETATM    3  C   UNL     1      64.900   8.406   4.904  1.00  0.00     0.017 A 
HETATM    4  C   UNL     1      64.493   6.582   6.428  1.00  0.00     0.017 A 
HETATM    5  C   UNL     1      63.642   8.198   4.326  1.00  0.00     0.015 A 
HETATM    6  C   UNL     1      63.235   6.381   5.850  1.00  0.00     0.015 A 
ENDROOT
BRANCH   2   7
HETATM    7  C   UNL     1      61.468   7.005   4.159  1.00  0.00     0.085 A 
HETATM    8  N   UNL     1      61.108   7.547   3.010  1.00  0.00    -0.347 N 
HETATM    9  C   UNL     1      59.800   7.186   2.685  1.00  0.00     0.085 A 
ATOM     10  HN  UNL     1      61.705   8.146   2.438  1.00  0.00     0.167 HD
HETATM   11  C   UNL     1      59.178   6.393   3.630  1.00  0.00     0.085 A 
HETATM   12  S   UNL     1      60.236   6.077   4.932  1.00  0.00    -0.081 SA
BRANCH   9  13
HETATM   13  C   UNL     1      59.154   7.620   1.445  1.00  0.00     0.172 C 
HETATM   14  O   UNL     1      57.959   7.923   1.411  1.00  0.00    -0.291 OA
HETATM   15  C   UNL     1      59.998   7.682   0.200  1.00  0.00     0.098 C 
ENDBRANCH   9  13
ENDBRANCH   2   7
BRANCH   1  16
HETATM   16  C   UNL     1      66.700   7.787   6.585  1.00  0.00     0.417 C 
HETATM   17  F   UNL     1      66.881   7.072   7.731  1.00  0.00    -0.166 F 
HETATM   18  F   UNL     1      67.714   7.420   5.753  1.00  0.00    -0.166 F 
HETATM   19  F   UNL     1      66.942   9.087   6.915  1.00  0.00    -0.166 F 
ENDBRANCH   1  16
TORSDOF 3
ENDMDL
MODEL 9
REMARK VINA RESULT:      -4.6      5.645      7.027
REMARK  3 active torsions:
REMARK  status: ('A' for Active; 'I' for Inactive)
REMARK    1  A    between atoms: C_3  and  C_8 
REMARK    2  A    between atoms: C_4  and  C_10 
REMARK    3  A    between atoms: C_6  and  C_9 
ROOT
HETATM    1  C   UNL     1      56.146   6.348   2.637  1.00  0.00     0.048 A 
HETATM    2  C   UNL     1      58.745   7.374   3.128  1.00  0.00    -0.002 A 
HETATM    3  C   UNL     1      56.967   6.751   1.576  1.00  0.00     0.017 A 
HETATM    4  C   UNL     1      56.635   6.462   3.947  1.00  0.00     0.017 A 
HETATM    5  C   UNL     1      58.246   7.264   1.821  1.00  0.00     0.015 A 
HETATM    6  C   UNL     1      57.916   6.971   4.187  1.00  0.00     0.015 A 
ENDROOT
BRANCH   2   7
HETATM    7  C   UNL     1      60.099   7.917   3.344  1.00  0.00     0.085 A 
HETATM    8  N   UNL     1      60.357   9.161   3.707  1.00  0.00    -0.347 N 
HETATM    9  C   UNL     1      61.733   9.363   3.822  1.00  0.00     0.085 A 
ATOM     10  HN  UNL     1      59.648   9.874   3.879  1.00  0.00     0.167 HD
HETATM   11  C   UNL     1      62.498   8.256   3.505  1.00  0.00     0.085 A 
HETATM   12  S   UNL     1      61.496   6.943   3.073  1.00  0.00    -0.081 SA
BRANCH   9  13
HETATM   13  C   UNL     1      62.303  10.644   4.242  1.00  0.00     0.172 C 
HETATM   14  O   UNL     1      62.050  11.691   3.644  1.00  0.00    -0.291 OA
HETATM   15  C   UNL     1      63.219  10.643   5.437  1.00  0.00     0.098 C 
ENDBRANCH   9  13
ENDBRANCH   2   7
BRANCH   1  16
HETATM   16  C   UNL     1      54.755   5.811   2.399  1.00  0.00     0.417 C 
HETATM   17  F   UNL     1      53.881   6.090   3.407  1.00  0.00    -0.166 F 
HETATM   18  F   UNL     1      54.190   6.311   1.265  1.00  0.00    -0.166 F 
HETATM   19  F   UNL     1      54.740   4.457   2.256  1.00  0.00    -0.166 F 
ENDBRANCH   1  16
TORSDOF 3
ENDMDL
