MODEL 1
REMARK VINA RESULT:      -5.4      0.000      0.000
REMARK  2 active torsions:
REMARK  status: ('A' for Active; 'I' for Inactive)
REMARK    1  A    between atoms: C_1  and  C_4 
REMARK    2  A    between atoms: C_7  and  C_13 
ROOT
HETATM    1  N   UNL     1      63.579   9.522   4.796  1.00  0.00    -0.345 N 
ATOM      2  HN  UNL     1      64.199  10.251   5.151  1.00  0.00     0.167 HD
HETATM    3  C   UNL     1      63.753   8.227   4.978  1.00  0.00     0.102 A 
HETATM    4  C   UNL     1      62.426   9.750   4.047  1.00  0.00     0.085 A 
HETATM    5  S   UNL     1      62.531   7.219   4.312  1.00  0.00    -0.080 SA
HETATM    6  C   UNL     1      61.719   8.606   3.724  1.00  0.00     0.085 A 
ENDROOT
BRANCH   3   7
HETATM    7  C   UNL     1      64.953   7.672   5.697  1.00  0.00     0.073 A 
HETATM    8  N   UNL     1      64.913   7.296   7.032  1.00  0.00    -0.352 N 
HETATM    9  C   UNL     1      66.073   6.786   7.388  1.00  0.00     0.047 A 
ATOM     10  HN  UNL     1      64.105   7.398   7.646  1.00  0.00     0.166 HD
HETATM   11  S   UNL     1      67.289   6.794   6.173  1.00  0.00    -0.087 SA
HETATM   12  C   UNL     1      66.364   6.220   8.733  1.00  0.00     0.076 C 
HETATM   13  C   UNL     1      66.168   7.476   5.072  1.00  0.00     0.083 A 
ENDBRANCH   3   7
BRANCH   4  14
HETATM   14  C   UNL     1      62.022  11.095   3.637  1.00  0.00     0.172 C 
HETATM   15  O   UNL     1      61.866  12.003   4.454  1.00  0.00    -0.291 OA
HETATM   16  C   UNL     1      61.791  11.332   2.166  1.00  0.00     0.098 C 
ENDBRANCH   4  14
TORSDOF 2
ENDMDL
MODEL 2
REMARK VINA RESULT:      -5.1      2.631      6.197
REMARK  2 active torsions:
REMARK  status: ('A' for Active; 'I' for Inactive)
REMARK    1  A    between atoms: C_1  and  C_4 
REMARK    2  A    between atoms: C_7  and  C_13 
ROOT
HETATM    1  N   UNL     1      65.611   7.326   7.054  1.00  0.00    -0.345 N 
ATOM      2  HN  UNL     1      64.821   7.524   7.668  1.00  0.00     0.167 HD
HETATM    3  C   UNL     1      65.665   7.622   5.770  1.00  0.00     0.102 A 
HETATM    4  C   UNL     1      66.792   6.700   7.451  1.00  0.00     0.085 A 
HETATM    5  S   UNL     1      67.137   7.217   4.982  1.00  0.00    -0.080 SA
HETATM    6  C   UNL     1      67.742   6.586   6.452  1.00  0.00     0.085 A 
ENDROOT
BRANCH   3   7
HETATM    7  C   UNL     1      64.505   8.248   5.042  1.00  0.00     0.073 A 
HETATM    8  N   UNL     1      63.990   9.488   5.389  1.00  0.00    -0.352 N 
HETATM    9  C   UNL     1      63.030   9.823   4.553  1.00  0.00     0.047 A 
ATOM     10  HN  UNL     1      64.308  10.057   6.174  1.00  0.00     0.166 HD
HETATM   11  S   UNL     1      62.646   8.649   3.357  1.00  0.00    -0.087 SA
HETATM   12  C   UNL     1      62.300  11.119   4.590  1.00  0.00     0.076 C 
HETATM   13  C   UNL     1      63.893   7.642   3.963  1.00  0.00     0.083 A 
ENDBRANCH   3   7
BRANCH   4  14
HETATM   14  C   UNL     1      66.984   6.201   8.813  1.00  0.00     0.172 C 
HETATM   15  O   UNL     1      66.295   6.598   9.753  1.00  0.00    -0.291 OA
HETATM   16  C   UNL     1      68.072   5.180   9.031  1.00  0.00     0.098 C 
ENDBRANCH   4  14
TORSDOF 2
ENDMDL
MODEL 3
REMARK VINA RESULT:      -4.7      1.896      2.054
REMARK  2 active torsions:
REMARK  status: ('A' for Active; 'I' for Inactive)
REMARK    1  A    between atoms: C_1  and  C_4 
REMARK    2  A    between atoms: C_7  and  C_13 
ROOT
HETATM    1  N   UNL     1      63.448   8.200   3.569  1.00  0.00    -0.345 N 
ATOM      2  HN  UNL     1      63.812   7.377   3.090  1.00  0.00     0.167 HD
HETATM    3  C   UNL     1      63.932   8.697   4.692  1.00  0.00     0.102 A 
HETATM    4  C   UNL     1      62.366   8.964   3.135  1.00  0.00     0.085 A 
HETATM    5  S   UNL     1      63.159  10.122   5.260  1.00  0.00    -0.080 SA
HETATM    6  C   UNL     1      62.090  10.065   3.924  1.00  0.00     0.085 A 
ENDROOT
BRANCH   3   7
HETATM    7  C   UNL     1      65.068   8.045   5.434  1.00  0.00     0.073 A 
HETATM    8  N   UNL     1      64.941   7.594   6.740  1.00  0.00    -0.352 N 
HETATM    9  C   UNL     1      66.058   7.010   7.121  1.00  0.00     0.047 A 
ATOM     10  HN  UNL     1      64.108   7.698   7.319  1.00  0.00     0.166 HD
HETATM   11  S   UNL     1      67.334   7.031   5.970  1.00  0.00    -0.087 SA
HETATM   12  C   UNL     1      66.253   6.353   8.442  1.00  0.00     0.076 C 
HETATM   13  C   UNL     1      66.303   7.829   4.858  1.00  0.00     0.083 A 
ENDBRANCH   3   7
BRANCH   4  14
HETATM   14  C   UNL     1      61.591   8.603   1.946  1.00  0.00     0.172 C 
HETATM   15  O   UNL     1      60.470   8.104   2.031  1.00  0.00    -0.291 OA
HETATM   16  C   UNL     1      62.225   8.857   0.602  1.00  0.00     0.098 C 
ENDBRANCH   4  14
TORSDOF 2
ENDMDL
MODEL 4
REMARK VINA RESULT:      -4.5      3.622      5.834
REMARK  2 active torsions:
REMARK  status: ('A' for Active; 'I' for Inactive)
REMARK    1  A    between atoms: C_1  and  C_4 
REMARK    2  A    between atoms: C_7  and  C_13 
ROOT
HETATM    1  N   UNL     1      60.521   9.023   3.498  1.00  0.00    -0.345 N 
ATOM      2  HN  UNL     1      59.617   9.491   3.418  1.00  0.00     0.167 HD
HETATM    3  C   UNL     1      60.689   7.722   3.636  1.00  0.00     0.102 A 
HETATM    4  C   UNL     1      61.757   9.667   3.479  1.00  0.00     0.085 A 
HETATM    5  S   UNL     1      62.322   7.193   3.700  1.00  0.00    -0.080 SA
HETATM    6  C   UNL     1      62.845   8.816   3.550  1.00  0.00     0.085 A 
ENDROOT
BRANCH   3   7
HETATM    7  C   UNL     1      59.528   6.771   3.754  1.00  0.00     0.073 A 
HETATM    8  N   UNL     1      58.214   7.208   3.849  1.00  0.00    -0.352 N 
HETATM    9  C   UNL     1      57.400   6.173   3.875  1.00  0.00     0.047 A 
ATOM     10  HN  UNL     1      57.922   8.184   3.891  1.00  0.00     0.166 HD
HETATM   11  S   UNL     1      58.161   4.632   3.858  1.00  0.00    -0.087 SA
HETATM   12  C   UNL     1      55.916   6.274   3.906  1.00  0.00     0.076 C 
HETATM   13  C   UNL     1      59.689   5.400   3.751  1.00  0.00     0.083 A 
ENDBRANCH   3   7
BRANCH   4  14
HETATM   14  C   UNL     1      61.871  11.124   3.403  1.00  0.00     0.172 C 
HETATM   15  O   UNL     1      62.016  11.816   4.410  1.00  0.00    -0.291 OA
HETATM   16  C   UNL     1      61.793  11.755   2.035  1.00  0.00     0.098 C 
ENDBRANCH   4  14
TORSDOF 2
ENDMDL
MODEL 5
REMARK VINA RESULT:      -4.4      3.699      6.370
REMARK  2 active torsions:
REMARK  status: ('A' for Active; 'I' for Inactive)
REMARK    1  A    between atoms: C_1  and  C_4 
REMARK    2  A    between atoms: C_7  and  C_13 
ROOT
HETATM    1  N   UNL     1      60.723   9.249   3.240  1.00  0.00    -0.345 N 
ATOM      2  HN  UNL     1      59.902   9.852   3.271  1.00  0.00     0.167 HD
HETATM    3  C   UNL     1      60.734   8.008   2.791  1.00  0.00     0.102 A 
HETATM    4  C   UNL     1      61.999   9.614   3.668  1.00  0.00     0.085 A 
HETATM    5  S   UNL     1      62.267   7.232   2.808  1.00  0.00    -0.080 SA
HETATM    6  C   UNL     1      62.965   8.643   3.478  1.00  0.00     0.085 A 
ENDROOT
BRANCH   3   7
HETATM    7  C   UNL     1      59.484   7.315   2.319  1.00  0.00     0.073 A 
HETATM    8  N   UNL     1      58.309   7.314   3.058  1.00  0.00    -0.352 N 
HETATM    9  C   UNL     1      57.361   6.694   2.388  1.00  0.00     0.047 A 
ATOM     10  HN  UNL     1      58.197   7.730   3.982  1.00  0.00     0.166 HD
HETATM   11  S   UNL     1      57.837   6.024   0.879  1.00  0.00    -0.087 SA
HETATM   12  C   UNL     1      55.954   6.563   2.854  1.00  0.00     0.076 C 
HETATM   13  C   UNL     1      59.413   6.655   1.109  1.00  0.00     0.083 A 
ENDBRANCH   3   7
BRANCH   4  14
HETATM   14  C   UNL     1      62.267  10.917   4.277  1.00  0.00     0.172 C 
HETATM   15  O   UNL     1      61.920  11.968   3.739  1.00  0.00    -0.291 OA
HETATM   16  C   UNL     1      63.001  10.929   5.595  1.00  0.00     0.098 C 
ENDBRANCH   4  14
TORSDOF 2
ENDMDL
MODEL 6
REMARK VINA RESULT:      -4.4      3.390      5.378
REMARK  2 active torsions:
REMARK  status: ('A' for Active; 'I' for Inactive)
REMARK    1  A    between atoms: C_1  and  C_4 
REMARK    2  A    between atoms: C_7  and  C_13 
ROOT
HETATM    1  N   UNL     1      60.759   8.989   3.385  1.00  0.00    -0.345 N 
ATOM      2  HN  UNL     1      59.940   9.306   2.865  1.00  0.00     0.167 HD
HETATM    3  C   UNL     1      60.937   7.763   3.838  1.00  0.00     0.102 A 
HETATM    4  C   UNL     1      61.850   9.787   3.720  1.00  0.00     0.085 A 
HETATM    5  S   UNL     1      62.431   7.485   4.641  1.00  0.00    -0.080 SA
HETATM    6  C   UNL     1      62.865   9.120   4.383  1.00  0.00     0.085 A 
ENDROOT
BRANCH   3   7
HETATM    7  C   UNL     1      59.893   6.690   3.682  1.00  0.00     0.073 A 
HETATM    8  N   UNL     1      59.411   5.959   4.759  1.00  0.00    -0.352 N 
HETATM    9  C   UNL     1      58.465   5.138   4.353  1.00  0.00     0.047 A 
ATOM     10  HN  UNL     1      59.739   6.045   5.720  1.00  0.00     0.166 HD
HETATM   11  S   UNL     1      58.153   5.146   2.663  1.00  0.00    -0.087 SA
HETATM   12  C   UNL     1      57.682   4.250   5.254  1.00  0.00     0.076 C 
HETATM   13  C   UNL     1      59.327   6.377   2.463  1.00  0.00     0.083 A 
ENDBRANCH   3   7
BRANCH   4  14
HETATM   14  C   UNL     1      61.893  11.215   3.401  1.00  0.00     0.172 C 
HETATM   15  O   UNL     1      62.012  12.072   4.277  1.00  0.00    -0.291 OA
HETATM   16  C   UNL     1      61.773  11.605   1.949  1.00  0.00     0.098 C 
ENDBRANCH   4  14
TORSDOF 2
ENDMDL
MODEL 7
REMARK VINA RESULT:      -4.4      2.818      6.236
REMARK  2 active torsions:
REMARK  status: ('A' for Active; 'I' for Inactive)
REMARK    1  A    between atoms: C_1  and  C_4 
REMARK    2  A    between atoms: C_7  and  C_13 
ROOT
HETATM    1  N   UNL     1      64.637   6.849   6.703  1.00  0.00    -0.345 N 
ATOM      2  HN  UNL     1      63.783   6.518   7.153  1.00  0.00     0.167 HD
HETATM    3  C   UNL     1      64.683   7.503   5.558  1.00  0.00     0.102 A 
HETATM    4  C   UNL     1      65.925   6.674   7.207  1.00  0.00     0.085 A 
HETATM    5  S   UNL     1      66.252   7.984   5.048  1.00  0.00    -0.080 SA
HETATM    6  C   UNL     1      66.921   7.255   6.444  1.00  0.00     0.085 A 
ENDROOT
BRANCH   3   7
HETATM    7  C   UNL     1      63.449   7.784   4.744  1.00  0.00     0.073 A 
HETATM    8  N   UNL     1      63.467   8.598   3.621  1.00  0.00    -0.352 N 
HETATM    9  C   UNL     1      62.274   8.620   3.066  1.00  0.00     0.047 A 
ATOM     10  HN  UNL     1      64.283   9.104   3.276  1.00  0.00     0.166 HD
HETATM   11  S   UNL     1      61.057   7.729   3.890  1.00  0.00    -0.087 SA
HETATM   12  C   UNL     1      61.948   9.341   1.805  1.00  0.00     0.076 C 
HETATM   13  C   UNL     1      62.221   7.231   5.045  1.00  0.00     0.083 A 
ENDBRANCH   3   7
BRANCH   4  14
HETATM   14  C   UNL     1      66.179   5.921   8.437  1.00  0.00     0.172 C 
HETATM   15  O   UNL     1      65.852   4.740   8.553  1.00  0.00    -0.291 OA
HETATM   16  C   UNL     1      66.853   6.652   9.570  1.00  0.00     0.098 C 
ENDBRANCH   4  14
TORSDOF 2
ENDMDL
MODEL 8
REMARK VINA RESULT:      -4.2      9.421     10.243
REMARK  2 active torsions:
REMARK  status: ('A' for Active; 'I' for Inactive)
REMARK    1  A    between atoms: C_1  and  C_4 
REMARK    2  A    between atoms: C_7  and  C_13 
ROOT
HETATM    1  N   UNL     1      58.435   3.970  10.554  1.00  0.00    -0.345 N 
ATOM      2  HN  UNL     1      58.097   4.639  11.246  1.00  0.00     0.167 HD
HETATM    3  C   UNL     1      58.536   2.669  10.747  1.00  0.00     0.102 A 
HETATM    4  C   UNL     1      58.857   4.297   9.267  1.00  0.00     0.085 A 
HETATM    5  S   UNL     1      59.090   1.765   9.395  1.00  0.00    -0.080 SA
HETATM    6  C   UNL     1      59.222   3.211   8.491  1.00  0.00     0.085 A 
ENDROOT
BRANCH   3   7
HETATM    7  C   UNL     1      58.211   2.026  12.069  1.00  0.00     0.073 A 
HETATM    8  N   UNL     1      56.920   1.658  12.421  1.00  0.00    -0.352 N 
HETATM    9  C   UNL     1      56.930   1.063  13.595  1.00  0.00     0.047 A 
ATOM     10  HN  UNL     1      56.088   1.824  11.855  1.00  0.00     0.166 HD
HETATM   11  S   UNL     1      58.463   0.974  14.368  1.00  0.00    -0.087 SA
HETATM   12  C   UNL     1      55.727   0.481  14.250  1.00  0.00     0.076 C 
HETATM   13  C   UNL     1      59.178   1.736  13.010  1.00  0.00     0.083 A 
ENDBRANCH   3   7
BRANCH   4  14
HETATM   14  C   UNL     1      58.916   5.683   8.800  1.00  0.00     0.172 C 
HETATM   15  O   UNL     1      58.321   6.589   9.384  1.00  0.00    -0.291 OA
HETATM   16  C   UNL     1      59.728   5.964   7.561  1.00  0.00     0.098 C 
ENDBRANCH   4  14
TORSDOF 2
ENDMDL
MODEL 9
REMARK VINA RESULT:      -3.9      8.962      9.801
REMARK  2 active torsions:
REMARK  status: ('A' for Active; 'I' for Inactive)
REMARK    1  A    between atoms: C_1  and  C_4 
REMARK    2  A    between atoms: C_7  and  C_13 
ROOT
HETATM    1  N   UNL     1      58.676   3.961  10.400  1.00  0.00    -0.345 N 
ATOM      2  HN  UNL     1      59.213   4.423  11.133  1.00  0.00     0.167 HD
HETATM    3  C   UNL     1      58.187   2.738  10.477  1.00  0.00     0.102 A 
HETATM    4  C   UNL     1      58.351   4.530   9.169  1.00  0.00     0.085 A 
HETATM    5  S   UNL     1      57.277   2.221   9.114  1.00  0.00    -0.080 SA
HETATM    6  C   UNL     1      57.569   3.729   8.358  1.00  0.00     0.085 A 
ENDROOT
BRANCH   3   7
HETATM    7  C   UNL     1      58.432   1.850  11.667  1.00  0.00     0.073 A 
HETATM    8  N   UNL     1      59.265   0.741  11.610  1.00  0.00    -0.352 N 
HETATM    9  C   UNL     1      59.351   0.185  12.800  1.00  0.00     0.047 A 
ATOM     10  HN  UNL     1      59.741   0.408  10.772  1.00  0.00     0.166 HD
HETATM   11  S   UNL     1      58.391   0.912  14.027  1.00  0.00    -0.087 SA
HETATM   12  C   UNL     1      60.211  -0.986  13.118  1.00  0.00     0.076 C 
HETATM   13  C   UNL     1      57.865   2.091  12.902  1.00  0.00     0.083 A 
ENDBRANCH   3   7
BRANCH   4  14
HETATM   14  C   UNL     1      58.822   5.861   8.783  1.00  0.00     0.172 C 
HETATM   15  O   UNL     1      58.406   6.880   9.334  1.00  0.00    -0.291 OA
HETATM   16  C   UNL     1      59.835   5.942   7.669  1.00  0.00     0.098 C 
ENDBRANCH   4  14
TORSDOF 2
ENDMDL
