MODEL 1
REMARK VINA RESULT:      -4.5      0.000      0.000
REMARK  1 active torsions:
REMARK  status: ('A' for Active; 'I' for Inactive)
REMARK    1  A    between atoms: C_5  and  O_10 
ROOT
HETATM    1  N   UNL     1      61.706  11.997   1.991  1.00  0.00    -0.191 NA
HETATM    2  N   UNL     1      63.143   9.637   5.927  1.00  0.00    -0.345 N 
ATOM      3  HN  UNL     1      63.631   9.923   6.776  1.00  0.00     0.167 HD
HETATM    4  C   UNL     1      61.921  11.182   2.789  1.00  0.00     0.101 C 
HETATM    5  C   UNL     1      62.758   8.358   5.728  1.00  0.00     0.141 A 
HETATM    6  C   UNL     1      62.189  10.187   3.775  1.00  0.00     0.060 A 
HETATM    7  C   UNL     1      62.850  10.522   4.948  1.00  0.00     0.112 A 
HETATM    8  C   UNL     1      62.092   7.926   4.591  1.00  0.00     0.057 A 
HETATM    9  C   UNL     1      61.804   8.859   3.596  1.00  0.00     0.028 A 
ENDROOT
BRANCH   5  10
HETATM   10  O   UNL     1      63.024   7.404   6.689  1.00  0.00    -0.341 OA
HETATM   11  C   UNL     1      64.327   6.842   6.560  1.00  0.00     0.211 C 
ENDBRANCH   5  10
TORSDOF 1
ENDMDL
MODEL 2
REMARK VINA RESULT:      -4.4      2.624      4.159
REMARK  1 active torsions:
REMARK  status: ('A' for Active; 'I' for Inactive)
REMARK    1  A    between atoms: C_5  and  O_10 
ROOT
HETATM    1  N   UNL     1      63.249  11.356   6.475  1.00  0.00    -0.191 NA
HETATM    2  N   UNL     1      61.470  10.565   2.077  1.00  0.00    -0.345 N 
ATOM      3  HN  UNL     1      60.956  11.145   1.414  1.00  0.00     0.167 HD
HETATM    4  C   UNL     1      62.944  10.877   5.462  1.00  0.00     0.101 C 
HETATM    5  C   UNL     1      61.785   9.281   1.798  1.00  0.00     0.141 A 
HETATM    6  C   UNL     1      62.565  10.296   4.216  1.00  0.00     0.060 A 
HETATM    7  C   UNL     1      61.866  11.043   3.279  1.00  0.00     0.112 A 
HETATM    8  C   UNL     1      62.482   8.456   2.669  1.00  0.00     0.057 A 
HETATM    9  C   UNL     1      62.878   8.975   3.901  1.00  0.00     0.028 A 
ENDROOT
BRANCH   5  10
HETATM   10  O   UNL     1      61.413   8.730   0.589  1.00  0.00    -0.341 OA
HETATM   11  C   UNL     1      60.107   8.160   0.624  1.00  0.00     0.211 C 
ENDBRANCH   5  10
TORSDOF 1
ENDMDL
MODEL 3
REMARK VINA RESULT:      -4.0      2.891      4.148
REMARK  1 active torsions:
REMARK  status: ('A' for Active; 'I' for Inactive)
REMARK    1  A    between atoms: C_5  and  O_10 
ROOT
HETATM    1  N   UNL     1      63.041  11.174   6.275  1.00  0.00    -0.191 NA
HETATM    2  N   UNL     1      62.642   8.210   2.509  1.00  0.00    -0.345 N 
ATOM      3  HN  UNL     1      62.891   7.233   2.357  1.00  0.00     0.167 HD
HETATM    4  C   UNL     1      62.817  10.716   5.232  1.00  0.00     0.101 C 
HETATM    5  C   UNL     1      62.073   8.956   1.536  1.00  0.00     0.141 A 
HETATM    6  C   UNL     1      62.545  10.147   3.953  1.00  0.00     0.060 A 
HETATM    7  C   UNL     1      62.864   8.822   3.694  1.00  0.00     0.112 A 
HETATM    8  C   UNL     1      61.716  10.286   1.699  1.00  0.00     0.057 A 
HETATM    9  C   UNL     1      61.959  10.892   2.931  1.00  0.00     0.028 A 
ENDROOT
BRANCH   5  10
HETATM   10  O   UNL     1      61.816   8.393   0.303  1.00  0.00    -0.341 OA
HETATM   11  C   UNL     1      61.693   6.974   0.361  1.00  0.00     0.211 C 
ENDBRANCH   5  10
TORSDOF 1
ENDMDL
MODEL 4
REMARK VINA RESULT:      -4.0      3.920      6.958
REMARK  1 active torsions:
REMARK  status: ('A' for Active; 'I' for Inactive)
REMARK    1  A    between atoms: C_5  and  O_10 
ROOT
HETATM    1  N   UNL     1      67.561   3.492   9.108  1.00  0.00    -0.191 NA
HETATM    2  N   UNL     1      65.360   7.268   7.102  1.00  0.00    -0.345 N 
ATOM      3  HN  UNL     1      64.480   7.748   7.290  1.00  0.00     0.167 HD
HETATM    4  C   UNL     1      67.288   4.400   8.438  1.00  0.00     0.101 C 
HETATM    5  C   UNL     1      66.185   7.666   6.108  1.00  0.00     0.141 A 
HETATM    6  C   UNL     1      66.944   5.516   7.620  1.00  0.00     0.060 A 
HETATM    7  C   UNL     1      65.758   6.203   7.835  1.00  0.00     0.112 A 
HETATM    8  C   UNL     1      67.390   7.045   5.817  1.00  0.00     0.057 A 
HETATM    9  C   UNL     1      67.775   5.949   6.588  1.00  0.00     0.028 A 
ENDROOT
BRANCH   5  10
HETATM   10  O   UNL     1      65.841   8.747   5.323  1.00  0.00    -0.341 OA
HETATM   11  C   UNL     1      64.465   8.739   4.949  1.00  0.00     0.211 C 
ENDBRANCH   5  10
TORSDOF 1
ENDMDL
MODEL 5
REMARK VINA RESULT:      -3.9      2.396      4.476
REMARK  1 active torsions:
REMARK  status: ('A' for Active; 'I' for Inactive)
REMARK    1  A    between atoms: C_5  and  O_10 
ROOT
HETATM    1  N   UNL     1      64.932   7.093   6.849  1.00  0.00    -0.191 NA
HETATM    2  N   UNL     1      62.458  10.214   4.152  1.00  0.00    -0.345 N 
ATOM      3  HN  UNL     1      62.081  11.145   4.326  1.00  0.00     0.167 HD
HETATM    4  C   UNL     1      64.365   7.617   5.981  1.00  0.00     0.101 C 
HETATM    5  C   UNL     1      62.306   9.600   2.958  1.00  0.00     0.141 A 
HETATM    6  C   UNL     1      63.667   8.266   4.921  1.00  0.00     0.060 A 
HETATM    7  C   UNL     1      63.135   9.534   5.105  1.00  0.00     0.112 A 
HETATM    8  C   UNL     1      62.802   8.336   2.677  1.00  0.00     0.057 A 
HETATM    9  C   UNL     1      63.494   7.657   3.679  1.00  0.00     0.028 A 
ENDROOT
BRANCH   5  10
HETATM   10  O   UNL     1      61.628  10.238   1.940  1.00  0.00    -0.341 OA
HETATM   11  C   UNL     1      61.750  11.657   2.003  1.00  0.00     0.211 C 
ENDBRANCH   5  10
TORSDOF 1
ENDMDL
MODEL 6
REMARK VINA RESULT:      -3.9      3.240      3.894
REMARK  1 active torsions:
REMARK  status: ('A' for Active; 'I' for Inactive)
REMARK    1  A    between atoms: C_5  and  O_10 
ROOT
HETATM    1  N   UNL     1      61.980  11.882   4.220  1.00  0.00    -0.191 NA
HETATM    2  N   UNL     1      62.111   7.310   2.735  1.00  0.00    -0.345 N 
ATOM      3  HN  UNL     1      62.153   6.415   3.223  1.00  0.00     0.167 HD
HETATM    4  C   UNL     1      62.000  10.916   3.576  1.00  0.00     0.101 C 
HETATM    5  C   UNL     1      62.083   7.379   1.385  1.00  0.00     0.141 A 
HETATM    6  C   UNL     1      62.025   9.725   2.792  1.00  0.00     0.060 A 
HETATM    7  C   UNL     1      62.081   8.483   3.406  1.00  0.00     0.112 A 
HETATM    8  C   UNL     1      62.025   8.572   0.680  1.00  0.00     0.057 A 
HETATM    9  C   UNL     1      61.997   9.767   1.398  1.00  0.00     0.028 A 
ENDROOT
BRANCH   5  10
HETATM   10  O   UNL     1      62.108   6.220   0.638  1.00  0.00    -0.341 OA
HETATM   11  C   UNL     1      63.433   5.771   0.364  1.00  0.00     0.211 C 
ENDBRANCH   5  10
TORSDOF 1
ENDMDL
MODEL 7
REMARK VINA RESULT:      -3.8      1.696      2.151
REMARK  1 active torsions:
REMARK  status: ('A' for Active; 'I' for Inactive)
REMARK    1  A    between atoms: C_5  and  O_10 
ROOT
HETATM    1  N   UNL     1      61.812  10.982   3.794  1.00  0.00    -0.191 NA
HETATM    2  N   UNL     1      65.122   8.193   5.890  1.00  0.00    -0.345 N 
ATOM      3  HN  UNL     1      66.117   8.310   6.084  1.00  0.00     0.167 HD
HETATM    4  C   UNL     1      62.364  10.112   4.329  1.00  0.00     0.101 C 
HETATM    5  C   UNL     1      64.462   7.066   6.236  1.00  0.00     0.141 A 
HETATM    6  C   UNL     1      63.049   9.047   4.986  1.00  0.00     0.060 A 
HETATM    7  C   UNL     1      64.402   9.157   5.274  1.00  0.00     0.112 A 
HETATM    8  C   UNL     1      63.112   6.863   5.993  1.00  0.00     0.057 A 
HETATM    9  C   UNL     1      62.394   7.874   5.354  1.00  0.00     0.028 A 
ENDROOT
BRANCH   5  10
HETATM   10  O   UNL     1      65.137   6.043   6.870  1.00  0.00    -0.341 OA
HETATM   11  C   UNL     1      65.930   6.501   7.962  1.00  0.00     0.211 C 
ENDBRANCH   5  10
TORSDOF 1
ENDMDL
MODEL 8
REMARK VINA RESULT:      -3.7      5.656      7.105
REMARK  1 active torsions:
REMARK  status: ('A' for Active; 'I' for Inactive)
REMARK    1  A    between atoms: C_5  and  O_10 
ROOT
HETATM    1  N   UNL     1      66.588   8.746   6.685  1.00  0.00    -0.191 NA
HETATM    2  N   UNL     1      65.683   4.220   8.039  1.00  0.00    -0.345 N 
ATOM      3  HN  UNL     1      64.829   3.667   8.107  1.00  0.00     0.167 HD
HETATM    4  C   UNL     1      66.684   7.649   7.054  1.00  0.00     0.101 C 
HETATM    5  C   UNL     1      66.888   3.705   8.367  1.00  0.00     0.141 A 
HETATM    6  C   UNL     1      66.794   6.300   7.506  1.00  0.00     0.060 A 
HETATM    7  C   UNL     1      65.663   5.505   7.616  1.00  0.00     0.112 A 
HETATM    8  C   UNL     1      68.074   4.420   8.288  1.00  0.00     0.057 A 
HETATM    9  C   UNL     1      68.024   5.743   7.851  1.00  0.00     0.028 A 
ENDROOT
BRANCH   5  10
HETATM   10  O   UNL     1      66.981   2.400   8.803  1.00  0.00    -0.341 OA
HETATM   11  C   UNL     1      68.013   2.215   9.769  1.00  0.00     0.211 C 
ENDBRANCH   5  10
TORSDOF 1
ENDMDL
MODEL 9
REMARK VINA RESULT:      -3.6      3.159      4.137
REMARK  1 active torsions:
REMARK  status: ('A' for Active; 'I' for Inactive)
REMARK    1  A    between atoms: C_5  and  O_10 
ROOT
HETATM    1  N   UNL     1      63.497   5.371   0.923  1.00  0.00    -0.191 NA
HETATM    2  N   UNL     1      62.839   8.977   4.037  1.00  0.00    -0.345 N 
ATOM      3  HN  UNL     1      63.054   9.096   5.027  1.00  0.00     0.167 HD
HETATM    4  C   UNL     1      63.213   6.382   1.419  1.00  0.00     0.101 C 
HETATM    5  C   UNL     1      62.241   9.953   3.320  1.00  0.00     0.141 A 
HETATM    6  C   UNL     1      62.866   7.620   2.036  1.00  0.00     0.060 A 
HETATM    7  C   UNL     1      63.138   7.833   3.380  1.00  0.00     0.112 A 
HETATM    8  C   UNL     1      61.930   9.835   1.974  1.00  0.00     0.057 A 
HETATM    9  C   UNL     1      62.249   8.645   1.321  1.00  0.00     0.028 A 
ENDROOT
BRANCH   5  10
HETATM   10  O   UNL     1      61.910  11.146   3.929  1.00  0.00    -0.341 OA
HETATM   11  C   UNL     1      62.521  11.299   5.207  1.00  0.00     0.211 C 
ENDBRANCH   5  10
TORSDOF 1
ENDMDL
