MODEL 1
REMARK VINA RESULT:      -4.0      0.000      0.000
REMARK  1 active torsions:
REMARK  status: ('A' for Active; 'I' for Inactive)
REMARK    1  A    between atoms: C_1  and  C_2 
ROOT
HETATM    1  C   UNL     1      62.398  10.372   3.813  1.00  0.00     0.137 A 
HETATM    2  N   UNL     1      61.561  11.742   2.225  1.00  0.00    -0.272 N 
ATOM      3  HN  UNL     1      61.204  12.569   1.746  1.00  0.00     0.194 HD
HETATM    4  O   UNL     1      61.991  11.652   3.539  1.00  0.00    -0.235 OA
HETATM    5  C   UNL     1      62.232   9.620   2.664  1.00  0.00     0.061 A 
HETATM    6  C   UNL     1      61.711  10.517   1.719  1.00  0.00     0.117 A 
ENDROOT
BRANCH   1   7
HETATM    7  C   UNL     1      62.883  10.069   5.131  1.00  0.00     0.130 C 
HETATM    8  S   UNL     1      63.023   8.500   5.678  1.00  0.00    -0.058 SA
HETATM    9  N   UNL     1      63.238  11.100   5.953  1.00  0.00    -0.388 N 
HETATM   10  H   UNL     1      63.160  12.030   5.639  1.00  0.00     0.157 HD
HETATM   11  H   UNL     1      63.573  10.912   6.859  1.00  0.00     0.157 HD
ENDBRANCH   1   7
TORSDOF 1
ENDMDL
MODEL 2
REMARK VINA RESULT:      -3.8      2.957      3.878
REMARK  1 active torsions:
REMARK  status: ('A' for Active; 'I' for Inactive)
REMARK    1  A    between atoms: C_1  and  C_2 
ROOT
HETATM    1  C   UNL     1      64.048   9.203   5.049  1.00  0.00     0.137 A 
HETATM    2  N   UNL     1      65.921   8.098   5.658  1.00  0.00    -0.272 N 
ATOM      3  HN  UNL     1      66.813   7.867   6.097  1.00  0.00     0.194 HD
HETATM    4  O   UNL     1      65.194   9.269   5.798  1.00  0.00    -0.235 OA
HETATM    5  C   UNL     1      64.029   7.974   4.415  1.00  0.00     0.061 A 
HETATM    6  C   UNL     1      65.209   7.337   4.826  1.00  0.00     0.117 A 
ENDROOT
BRANCH   1   7
HETATM    7  C   UNL     1      63.151  10.325   5.059  1.00  0.00     0.130 C 
HETATM    8  S   UNL     1      61.987  10.530   3.883  1.00  0.00    -0.058 SA
HETATM    9  N   UNL     1      63.260  11.244   6.062  1.00  0.00    -0.388 N 
HETATM   10  H   UNL     1      63.944  11.131   6.761  1.00  0.00     0.157 HD
HETATM   11  H   UNL     1      62.654  12.019   6.086  1.00  0.00     0.157 HD
ENDBRANCH   1   7
TORSDOF 1
ENDMDL
MODEL 3
REMARK VINA RESULT:      -3.8      2.603      3.263
REMARK  1 active torsions:
REMARK  status: ('A' for Active; 'I' for Inactive)
REMARK    1  A    between atoms: C_1  and  C_2 
ROOT
HETATM    1  C   UNL     1      64.243   9.200   5.234  1.00  0.00     0.137 A 
HETATM    2  N   UNL     1      63.304  11.208   5.663  1.00  0.00    -0.272 N 
ATOM      3  HN  UNL     1      63.138  12.142   6.038  1.00  0.00     0.194 HD
HETATM    4  O   UNL     1      64.378  10.374   5.928  1.00  0.00    -0.235 OA
HETATM    5  C   UNL     1      63.068   9.271   4.507  1.00  0.00     0.061 A 
HETATM    6  C   UNL     1      62.531  10.531   4.813  1.00  0.00     0.117 A 
ENDROOT
BRANCH   1   7
HETATM    7  C   UNL     1      65.259   8.194   5.373  1.00  0.00     0.130 C 
HETATM    8  S   UNL     1      65.392   6.923   4.302  1.00  0.00    -0.058 SA
HETATM    9  N   UNL     1      66.138   8.289   6.413  1.00  0.00    -0.388 N 
HETATM   10  H   UNL     1      66.068   9.036   7.051  1.00  0.00     0.157 HD
HETATM   11  H   UNL     1      66.842   7.610   6.526  1.00  0.00     0.157 HD
ENDBRANCH   1   7
TORSDOF 1
ENDMDL
MODEL 4
REMARK VINA RESULT:      -3.8      2.796      3.525
REMARK  1 active torsions:
REMARK  status: ('A' for Active; 'I' for Inactive)
REMARK    1  A    between atoms: C_1  and  C_2 
ROOT
HETATM    1  C   UNL     1      64.220   9.168   5.117  1.00  0.00     0.137 A 
HETATM    2  N   UNL     1      63.631  11.194   5.919  1.00  0.00    -0.272 N 
ATOM      3  HN  UNL     1      63.648  12.081   6.423  1.00  0.00     0.194 HD
HETATM    4  O   UNL     1      64.607  10.211   5.917  1.00  0.00    -0.235 OA
HETATM    5  C   UNL     1      62.978   9.476   4.591  1.00  0.00     0.061 A 
HETATM    6  C   UNL     1      62.665  10.736   5.121  1.00  0.00     0.117 A 
ENDROOT
BRANCH   1   7
HETATM    7  C   UNL     1      65.098   8.039   4.980  1.00  0.00     0.130 C 
HETATM    8  S   UNL     1      66.422   7.828   5.972  1.00  0.00    -0.058 SA
HETATM    9  N   UNL     1      64.835   7.117   4.008  1.00  0.00    -0.388 N 
HETATM   10  H   UNL     1      64.056   7.232   3.418  1.00  0.00     0.157 HD
HETATM   11  H   UNL     1      65.425   6.336   3.899  1.00  0.00     0.157 HD
ENDBRANCH   1   7
TORSDOF 1
ENDMDL
MODEL 5
REMARK VINA RESULT:      -3.7      2.232      3.273
REMARK  1 active torsions:
REMARK  status: ('A' for Active; 'I' for Inactive)
REMARK    1  A    between atoms: C_1  and  C_2 
ROOT
HETATM    1  C   UNL     1      62.019   9.900   3.734  1.00  0.00     0.137 A 
HETATM    2  N   UNL     1      62.394  11.778   4.930  1.00  0.00    -0.272 N 
ATOM      3  HN  UNL     1      62.370  12.747   5.250  1.00  0.00     0.194 HD
HETATM    4  O   UNL     1      61.736  11.238   3.837  1.00  0.00    -0.235 OA
HETATM    5  C   UNL     1      62.869   9.567   4.773  1.00  0.00     0.061 A 
HETATM    6  C   UNL     1      63.067  10.764   5.475  1.00  0.00     0.117 A 
ENDROOT
BRANCH   1   7
HETATM    7  C   UNL     1      61.430   9.151   2.659  1.00  0.00     0.130 C 
HETATM    8  S   UNL     1      62.089   9.144   1.127  1.00  0.00    -0.058 SA
HETATM    9  N   UNL     1      60.300   8.426   2.906  1.00  0.00    -0.388 N 
HETATM   10  H   UNL     1      59.903   8.424   3.808  1.00  0.00     0.157 HD
HETATM   11  H   UNL     1      59.882   7.906   2.183  1.00  0.00     0.157 HD
ENDBRANCH   1   7
TORSDOF 1
ENDMDL
MODEL 6
REMARK VINA RESULT:      -3.6      3.860      5.005
REMARK  1 active torsions:
REMARK  status: ('A' for Active; 'I' for Inactive)
REMARK    1  A    between atoms: C_1  and  C_2 
ROOT
HETATM    1  C   UNL     1      65.372   8.365   5.297  1.00  0.00     0.137 A 
HETATM    2  N   UNL     1      67.209   8.289   6.607  1.00  0.00    -0.272 N 
ATOM      3  HN  UNL     1      67.880   8.485   7.350  1.00  0.00     0.194 HD
HETATM    4  O   UNL     1      65.984   8.903   6.398  1.00  0.00    -0.235 OA
HETATM    5  C   UNL     1      66.207   7.389   4.783  1.00  0.00     0.061 A 
HETATM    6  C   UNL     1      67.324   7.388   5.631  1.00  0.00     0.117 A 
ENDROOT
BRANCH   1   7
HETATM    7  C   UNL     1      64.083   8.868   4.908  1.00  0.00     0.130 C 
HETATM    8  S   UNL     1      63.219   8.196   3.650  1.00  0.00    -0.058 SA
HETATM    9  N   UNL     1      63.558   9.926   5.592  1.00  0.00    -0.388 N 
HETATM   10  H   UNL     1      64.061  10.329   6.337  1.00  0.00     0.157 HD
HETATM   11  H   UNL     1      62.677  10.285   5.341  1.00  0.00     0.157 HD
ENDBRANCH   1   7
TORSDOF 1
ENDMDL
MODEL 7
REMARK VINA RESULT:      -3.5      1.997      3.398
REMARK  1 active torsions:
REMARK  status: ('A' for Active; 'I' for Inactive)
REMARK    1  A    between atoms: C_1  and  C_2 
ROOT
HETATM    1  C   UNL     1      62.558   9.764   3.586  1.00  0.00     0.137 A 
HETATM    2  N   UNL     1      63.124  10.196   5.729  1.00  0.00    -0.272 N 
ATOM      3  HN  UNL     1      63.234  10.664   6.628  1.00  0.00     0.194 HD
HETATM    4  O   UNL     1      62.503  10.691   4.594  1.00  0.00    -0.235 OA
HETATM    5  C   UNL     1      63.222   8.652   4.071  1.00  0.00     0.061 A 
HETATM    6  C   UNL     1      63.549   8.976   5.395  1.00  0.00     0.117 A 
ENDROOT
BRANCH   1   7
HETATM    7  C   UNL     1      61.966  10.087   2.317  1.00  0.00     0.130 C 
HETATM    8  S   UNL     1      61.905   8.984   1.068  1.00  0.00    -0.058 SA
HETATM    9  N   UNL     1      61.441  11.333   2.136  1.00  0.00    -0.388 N 
HETATM   10  H   UNL     1      61.472  11.992   2.868  1.00  0.00     0.157 HD
HETATM   11  H   UNL     1      61.031  11.574   1.274  1.00  0.00     0.157 HD
ENDBRANCH   1   7
TORSDOF 1
ENDMDL
MODEL 8
REMARK VINA RESULT:      -3.4      5.222      6.017
REMARK  1 active torsions:
REMARK  status: ('A' for Active; 'I' for Inactive)
REMARK    1  A    between atoms: C_1  and  C_2 
ROOT
HETATM    1  C   UNL     1      65.613   6.849   7.050  1.00  0.00     0.137 A 
HETATM    2  N   UNL     1      63.975   8.072   6.091  1.00  0.00    -0.272 N 
ATOM      3  HN  UNL     1      63.064   8.485   5.886  1.00  0.00     0.194 HD
HETATM    4  O   UNL     1      64.281   7.170   7.097  1.00  0.00    -0.235 OA
HETATM    5  C   UNL     1      66.180   7.551   6.002  1.00  0.00     0.061 A 
HETATM    6  C   UNL     1      65.123   8.287   5.447  1.00  0.00     0.117 A 
ENDROOT
BRANCH   1   7
HETATM    7  C   UNL     1      66.134   5.921   8.015  1.00  0.00     0.130 C 
HETATM    8  S   UNL     1      67.258   6.379   9.158  1.00  0.00    -0.058 SA
HETATM    9  N   UNL     1      65.691   4.630   7.990  1.00  0.00    -0.388 N 
HETATM   10  H   UNL     1      65.027   4.350   7.319  1.00  0.00     0.157 HD
HETATM   11  H   UNL     1      66.036   3.980   8.643  1.00  0.00     0.157 HD
ENDBRANCH   1   7
TORSDOF 1
ENDMDL
MODEL 9
REMARK VINA RESULT:      -3.3      1.872      1.909
REMARK  1 active torsions:
REMARK  status: ('A' for Active; 'I' for Inactive)
REMARK    1  A    between atoms: C_1  and  C_2 
ROOT
HETATM    1  C   UNL     1      61.976   9.663   3.341  1.00  0.00     0.137 A 
HETATM    2  N   UNL     1      61.674  11.882   3.049  1.00  0.00    -0.272 N 
ATOM      3  HN  UNL     1      61.521  12.873   3.234  1.00  0.00     0.194 HD
HETATM    4  O   UNL     1      61.766  10.858   3.978  1.00  0.00    -0.235 OA
HETATM    5  C   UNL     1      62.021   9.911   1.981  1.00  0.00     0.061 A 
HETATM    6  C   UNL     1      61.828  11.295   1.861  1.00  0.00     0.117 A 
ENDROOT
BRANCH   1   7
HETATM    7  C   UNL     1      62.100   8.470   4.133  1.00  0.00     0.130 C 
HETATM    8  S   UNL     1      63.434   8.185   5.091  1.00  0.00    -0.058 SA
HETATM    9  N   UNL     1      61.093   7.550   4.095  1.00  0.00    -0.388 N 
HETATM   10  H   UNL     1      60.300   7.710   3.532  1.00  0.00     0.157 HD
HETATM   11  H   UNL     1      61.159   6.727   4.630  1.00  0.00     0.157 HD
ENDBRANCH   1   7
TORSDOF 1
ENDMDL
