MODEL 1
REMARK VINA RESULT:      -5.1      0.000      0.000
REMARK  5 active torsions:
REMARK  status: ('A' for Active; 'I' for Inactive)
REMARK    1  A    between atoms: C_1  and  C_9 
REMARK    2  A    between atoms: N_4  and  C_8 
REMARK    3  A    between atoms: C_8  and  C_17 
REMARK    4  A    between atoms: C_12  and  O_16 
REMARK    5  A    between atoms: O_16  and  C_17 
ROOT
HETATM    1  C   UNL     1      65.351   7.013   6.570  1.00  0.00    -0.003 A 
HETATM    2  C   UNL     1      64.059   6.470   6.589  1.00  0.00     0.017 A 
HETATM    3  C   UNL     1      65.594   8.157   5.800  1.00  0.00     0.017 A 
HETATM    4  C   UNL     1      63.269   8.217   5.100  1.00  0.00     0.070 A 
HETATM    5  C   UNL     1      64.555   8.762   5.085  1.00  0.00     0.038 A 
HETATM    6  C   UNL     1      63.023   7.071   5.859  1.00  0.00     0.038 A 
ENDROOT
BRANCH   1   7
HETATM    7  C   UNL     1      66.474   6.416   7.330  1.00  0.00     0.076 C 
HETATM    8  N   UNL     1      66.743   6.727   8.559  1.00  0.00    -0.383 N 
HETATM    9  C   UNL     1      67.949   5.994   9.001  1.00  0.00     0.131 C 
ATOM     10  HN  UNL     1      66.207   7.377   9.133  1.00  0.00     0.160 HD
HETATM   11  C   UNL     1      68.075   4.696   8.223  1.00  0.00     0.100 C 
HETATM   12  S   UNL     1      67.465   5.170   6.595  1.00  0.00    -0.110 SA
ENDBRANCH   1   7
BRANCH   4  13
HETATM   13  O   UNL     1      62.333   8.913   4.380  1.00  0.00    -0.339 OA
BRANCH  13  14
HETATM   14  C   UNL     1      62.383  10.337   4.502  1.00  0.00     0.279 C 
BRANCH  14  15
HETATM   15  C   UNL     1      61.942  10.999   3.208  1.00  0.00    -0.051 C 
BRANCH  15  16
HETATM   16  N   UNL     1      61.576  11.548   2.133  1.00  0.00    -0.368 N 
ATOM     17  HN2 UNL     1      61.912  11.117   2.995  1.00  0.00     0.165 HD
ATOM     18  HN1 UNL     1      61.279  11.992   1.264  1.00  0.00     0.165 HD
ENDBRANCH  15  16
ENDBRANCH  14  15
ENDBRANCH  13  14
ENDBRANCH   4  13
TORSDOF 5
ENDMDL
MODEL 2
REMARK VINA RESULT:      -5.0      1.696      2.091
REMARK  5 active torsions:
REMARK  status: ('A' for Active; 'I' for Inactive)
REMARK    1  A    between atoms: C_1  and  C_9 
REMARK    2  A    between atoms: N_4  and  C_8 
REMARK    3  A    between atoms: C_8  and  C_17 
REMARK    4  A    between atoms: C_12  and  O_16 
REMARK    5  A    between atoms: O_16  and  C_17 
ROOT
HETATM    1  C   UNL     1      64.805   7.507   4.991  1.00  0.00    -0.003 A 
HETATM    2  C   UNL     1      64.648   6.776   3.806  1.00  0.00     0.017 A 
HETATM    3  C   UNL     1      63.946   8.583   5.243  1.00  0.00     0.017 A 
HETATM    4  C   UNL     1      62.778   8.178   3.152  1.00  0.00     0.070 A 
HETATM    5  C   UNL     1      62.930   8.903   4.336  1.00  0.00     0.038 A 
HETATM    6  C   UNL     1      63.638   7.110   2.892  1.00  0.00     0.038 A 
ENDROOT
BRANCH   1   7
HETATM    7  C   UNL     1      65.854   7.187   5.988  1.00  0.00     0.076 C 
HETATM    8  N   UNL     1      65.635   7.161   7.265  1.00  0.00    -0.383 N 
HETATM    9  C   UNL     1      66.896   6.860   7.976  1.00  0.00     0.131 C 
ATOM     10  HN  UNL     1      64.733   7.325   7.711  1.00  0.00     0.160 HD
HETATM   11  C   UNL     1      67.811   6.045   7.078  1.00  0.00     0.100 C 
HETATM   12  S   UNL     1      67.464   6.742   5.453  1.00  0.00    -0.110 SA
ENDBRANCH   1   7
BRANCH   4  13
HETATM   13  O   UNL     1      61.733   8.572   2.358  1.00  0.00    -0.339 OA
BRANCH  13  14
HETATM   14  C   UNL     1      62.070   9.414   1.253  1.00  0.00     0.279 C 
BRANCH  14  15
HETATM   15  C   UNL     1      61.925  10.878   1.633  1.00  0.00    -0.051 C 
BRANCH  15  16
HETATM   16  N   UNL     1      61.803  12.093   1.948  1.00  0.00    -0.368 N 
ATOM     17  HN2 UNL     1      61.918  11.122   1.656  1.00  0.00     0.165 HD
ATOM     18  HN1 UNL     1      61.704  13.076   2.204  1.00  0.00     0.165 HD
ENDBRANCH  15  16
ENDBRANCH  14  15
ENDBRANCH  13  14
ENDBRANCH   4  13
TORSDOF 5
ENDMDL
MODEL 3
REMARK VINA RESULT:      -5.0      3.433      7.026
REMARK  5 active torsions:
REMARK  status: ('A' for Active; 'I' for Inactive)
REMARK    1  A    between atoms: C_1  and  C_9 
REMARK    2  A    between atoms: N_4  and  C_8 
REMARK    3  A    between atoms: C_8  and  C_17 
REMARK    4  A    between atoms: C_12  and  O_16 
REMARK    5  A    between atoms: O_16  and  C_17 
ROOT
HETATM    1  C   UNL     1      62.108   8.391   3.381  1.00  0.00    -0.003 A 
HETATM    2  C   UNL     1      62.124   9.535   4.191  1.00  0.00     0.017 A 
HETATM    3  C   UNL     1      63.206   7.523   3.412  1.00  0.00     0.017 A 
HETATM    4  C   UNL     1      64.306   8.925   5.063  1.00  0.00     0.070 A 
HETATM    5  C   UNL     1      64.287   7.782   4.260  1.00  0.00     0.038 A 
HETATM    6  C   UNL     1      63.217   9.799   5.029  1.00  0.00     0.038 A 
ENDROOT
BRANCH   1   7
HETATM    7  C   UNL     1      60.972   8.069   2.486  1.00  0.00     0.076 C 
HETATM    8  N   UNL     1      59.741   8.024   2.889  1.00  0.00    -0.383 N 
HETATM    9  C   UNL     1      58.867   7.627   1.765  1.00  0.00     0.131 C 
ATOM     10  HN  UNL     1      59.424   8.231   3.836  1.00  0.00     0.160 HD
HETATM   11  C   UNL     1      59.498   8.048   0.449  1.00  0.00     0.100 C 
HETATM   12  S   UNL     1      61.253   7.802   0.776  1.00  0.00    -0.110 SA
ENDBRANCH   1   7
BRANCH   4  13
HETATM   13  O   UNL     1      65.408   9.055   5.866  1.00  0.00    -0.339 OA
BRANCH  13  14
HETATM   14  C   UNL     1      66.363   7.994   5.793  1.00  0.00     0.279 C 
BRANCH  14  15
HETATM   15  C   UNL     1      66.797   7.569   7.187  1.00  0.00    -0.051 C 
BRANCH  15  16
HETATM   16  N   UNL     1      67.157   7.216   8.342  1.00  0.00    -0.368 N 
ATOM     17  HN2 UNL     1      66.869   7.542   7.419  1.00  0.00     0.165 HD
ATOM     18  HN1 UNL     1      67.448   6.930   9.277  1.00  0.00     0.165 HD
ENDBRANCH  15  16
ENDBRANCH  14  15
ENDBRANCH  13  14
ENDBRANCH   4  13
TORSDOF 5
ENDMDL
MODEL 4
REMARK VINA RESULT:      -4.9      0.678      1.424
REMARK  5 active torsions:
REMARK  status: ('A' for Active; 'I' for Inactive)
REMARK    1  A    between atoms: C_1  and  C_9 
REMARK    2  A    between atoms: N_4  and  C_8 
REMARK    3  A    between atoms: C_8  and  C_17 
REMARK    4  A    between atoms: C_12  and  O_16 
REMARK    5  A    between atoms: O_16  and  C_17 
ROOT
HETATM    1  C   UNL     1      65.242   7.012   6.461  1.00  0.00    -0.003 A 
HETATM    2  C   UNL     1      65.514   8.091   5.610  1.00  0.00     0.017 A 
HETATM    3  C   UNL     1      63.941   6.496   6.508  1.00  0.00     0.017 A 
HETATM    4  C   UNL     1      63.208   8.114   4.852  1.00  0.00     0.070 A 
HETATM    5  C   UNL     1      62.938   7.035   5.696  1.00  0.00     0.038 A 
HETATM    6  C   UNL     1      64.502   8.638   4.808  1.00  0.00     0.038 A 
ENDROOT
BRANCH   1   7
HETATM    7  C   UNL     1      66.281   6.398   7.322  1.00  0.00     0.076 C 
HETATM    8  N   UNL     1      66.621   6.878   8.477  1.00  0.00    -0.383 N 
HETATM    9  C   UNL     1      67.714   6.064   9.048  1.00  0.00     0.131 C 
ATOM     10  HN  UNL     1      66.199   7.693   8.922  1.00  0.00     0.160 HD
HETATM   11  C   UNL     1      67.631   4.644   8.514  1.00  0.00     0.100 C 
HETATM   12  S   UNL     1      67.061   4.908   6.826  1.00  0.00    -0.110 SA
ENDBRANCH   1   7
BRANCH   4  13
HETATM   13  O   UNL     1      62.151   8.536   4.089  1.00  0.00    -0.339 OA
BRANCH  13  14
HETATM   14  C   UNL     1      62.465   8.948   2.757  1.00  0.00     0.279 C 
BRANCH  14  15
HETATM   15  C   UNL     1      61.962  10.358   2.501  1.00  0.00    -0.051 C 
BRANCH  15  16
HETATM   16  N   UNL     1      61.545  11.529   2.287  1.00  0.00    -0.368 N 
ATOM     17  HN2 UNL     1      61.913  10.588   2.432  1.00  0.00     0.165 HD
ATOM     18  HN1 UNL     1      61.206  12.476   2.115  1.00  0.00     0.165 HD
ENDBRANCH  15  16
ENDBRANCH  14  15
ENDBRANCH  13  14
ENDBRANCH   4  13
TORSDOF 5
ENDMDL
MODEL 5
REMARK VINA RESULT:      -4.8      2.481      3.162
REMARK  5 active torsions:
REMARK  status: ('A' for Active; 'I' for Inactive)
REMARK    1  A    between atoms: C_1  and  C_9 
REMARK    2  A    between atoms: N_4  and  C_8 
REMARK    3  A    between atoms: C_8  and  C_17 
REMARK    4  A    between atoms: C_12  and  O_16 
REMARK    5  A    between atoms: O_16  and  C_17 
ROOT
HETATM    1  C   UNL     1      64.216   8.239   4.837  1.00  0.00    -0.003 A 
HETATM    2  C   UNL     1      63.503   9.420   5.084  1.00  0.00     0.017 A 
HETATM    3  C   UNL     1      63.963   7.527   3.659  1.00  0.00     0.017 A 
HETATM    4  C   UNL     1      62.316   9.179   2.980  1.00  0.00     0.070 A 
HETATM    5  C   UNL     1      63.031   8.006   2.731  1.00  0.00     0.038 A 
HETATM    6  C   UNL     1      62.559   9.888   4.159  1.00  0.00     0.038 A 
ENDROOT
BRANCH   1   7
HETATM    7  C   UNL     1      65.227   7.710   5.783  1.00  0.00     0.076 C 
HETATM    8  N   UNL     1      64.923   7.203   6.937  1.00  0.00    -0.383 N 
HETATM    9  C   UNL     1      66.160   6.819   7.649  1.00  0.00     0.131 C 
ATOM     10  HN  UNL     1      63.976   7.088   7.298  1.00  0.00     0.160 HD
HETATM   11  C   UNL     1      67.252   6.494   6.645  1.00  0.00     0.100 C 
HETATM   12  S   UNL     1      66.920   7.680   5.330  1.00  0.00    -0.110 SA
ENDBRANCH   1   7
BRANCH   4  13
HETATM   13  O   UNL     1      61.451   9.556   1.987  1.00  0.00    -0.339 OA
BRANCH  13  14
HETATM   14  C   UNL     1      61.318   8.643   0.894  1.00  0.00     0.279 C 
BRANCH  14  15
HETATM   15  C   UNL     1      59.897   8.111   0.814  1.00  0.00    -0.051 C 
BRANCH  15  16
HETATM   16  N   UNL     1      58.718   7.669   0.747  1.00  0.00    -0.368 N 
ATOM     17  HN2 UNL     1      59.658   8.058   0.825  1.00  0.00     0.165 HD
ATOM     18  HN1 UNL     1      57.764   7.311   0.692  1.00  0.00     0.165 HD
ENDBRANCH  15  16
ENDBRANCH  14  15
ENDBRANCH  13  14
ENDBRANCH   4  13
TORSDOF 5
ENDMDL
MODEL 6
REMARK VINA RESULT:      -4.5      1.553      2.395
REMARK  5 active torsions:
REMARK  status: ('A' for Active; 'I' for Inactive)
REMARK    1  A    between atoms: C_1  and  C_9 
REMARK    2  A    between atoms: N_4  and  C_8 
REMARK    3  A    between atoms: C_8  and  C_17 
REMARK    4  A    between atoms: C_12  and  O_16 
REMARK    5  A    between atoms: O_16  and  C_17 
ROOT
HETATM    1  C   UNL     1      66.586   5.804   6.811  1.00  0.00    -0.003 A 
HETATM    2  C   UNL     1      67.359   6.766   6.149  1.00  0.00     0.017 A 
HETATM    3  C   UNL     1      65.200   5.984   6.890  1.00  0.00     0.017 A 
HETATM    4  C   UNL     1      65.369   8.057   5.636  1.00  0.00     0.070 A 
HETATM    5  C   UNL     1      64.597   7.095   6.291  1.00  0.00     0.038 A 
HETATM    6  C   UNL     1      66.753   7.886   5.563  1.00  0.00     0.038 A 
ENDROOT
BRANCH   1   7
HETATM    7  C   UNL     1      67.183   4.602   7.440  1.00  0.00     0.076 C 
HETATM    8  N   UNL     1      67.075   4.333   8.704  1.00  0.00    -0.383 N 
HETATM    9  C   UNL     1      67.823   3.096   9.012  1.00  0.00     0.131 C 
ATOM     10  HN  UNL     1      66.554   4.890   9.381  1.00  0.00     0.160 HD
HETATM   11  C   UNL     1      67.882   2.211   7.779  1.00  0.00     0.100 C 
HETATM   12  S   UNL     1      68.020   3.420   6.451  1.00  0.00    -0.110 SA
ENDBRANCH   1   7
BRANCH   4  13
HETATM   13  O   UNL     1      64.661   9.085   5.070  1.00  0.00    -0.339 OA
BRANCH  13  14
HETATM   14  C   UNL     1      63.243   9.035   5.240  1.00  0.00     0.279 C 
BRANCH  14  15
HETATM   15  C   UNL     1      62.562  10.064   4.352  1.00  0.00    -0.051 C 
BRANCH  15  16
HETATM   16  N   UNL     1      61.998  10.917   3.615  1.00  0.00    -0.368 N 
ATOM     17  HN2 UNL     1      62.423  10.200   4.204  1.00  0.00     0.165 HD
ATOM     18  HN1 UNL     1      61.541  11.608   3.019  1.00  0.00     0.165 HD
ENDBRANCH  15  16
ENDBRANCH  14  15
ENDBRANCH  13  14
ENDBRANCH   4  13
TORSDOF 5
ENDMDL
MODEL 7
REMARK VINA RESULT:      -4.3      3.118      6.818
REMARK  5 active torsions:
REMARK  status: ('A' for Active; 'I' for Inactive)
REMARK    1  A    between atoms: C_1  and  C_9 
REMARK    2  A    between atoms: N_4  and  C_8 
REMARK    3  A    between atoms: C_8  and  C_17 
REMARK    4  A    between atoms: C_12  and  O_16 
REMARK    5  A    between atoms: O_16  and  C_17 
ROOT
HETATM    1  C   UNL     1      64.920   7.746   5.315  1.00  0.00    -0.003 A 
HETATM    2  C   UNL     1      66.291   8.019   5.225  1.00  0.00     0.017 A 
HETATM    3  C   UNL     1      64.507   6.456   5.670  1.00  0.00     0.017 A 
HETATM    4  C   UNL     1      66.820   5.738   5.861  1.00  0.00     0.070 A 
HETATM    5  C   UNL     1      65.453   5.466   5.956  1.00  0.00     0.038 A 
HETATM    6  C   UNL     1      67.236   7.020   5.498  1.00  0.00     0.038 A 
ENDROOT
BRANCH   1   7
HETATM    7  C   UNL     1      63.886   8.772   5.041  1.00  0.00     0.076 C 
HETATM    8  N   UNL     1      63.943   9.979   5.510  1.00  0.00    -0.383 N 
HETATM    9  C   UNL     1      62.738  10.728   5.092  1.00  0.00     0.131 C 
ATOM     10  HN  UNL     1      64.701  10.355   6.078  1.00  0.00     0.160 HD
HETATM   11  C   UNL     1      62.206  10.161   3.788  1.00  0.00     0.100 C 
HETATM   12  S   UNL     1      62.544   8.401   3.976  1.00  0.00    -0.110 SA
ENDBRANCH   1   7
BRANCH   4  13
HETATM   13  O   UNL     1      67.645   4.694   6.189  1.00  0.00    -0.339 OA
BRANCH  13  14
HETATM   14  C   UNL     1      68.074   4.642   7.552  1.00  0.00     0.279 C 
BRANCH  14  15
HETATM   15  C   UNL     1      67.526   3.402   8.238  1.00  0.00    -0.051 C 
BRANCH  15  16
HETATM   16  N   UNL     1      67.071   2.372   8.806  1.00  0.00    -0.368 N 
ATOM     17  HN2 UNL     1      67.400   3.221   8.345  1.00  0.00     0.165 HD
ATOM     18  HN1 UNL     1      66.704   1.539   9.266  1.00  0.00     0.165 HD
ENDBRANCH  15  16
ENDBRANCH  14  15
ENDBRANCH  13  14
ENDBRANCH   4  13
TORSDOF 5
ENDMDL
MODEL 8
REMARK VINA RESULT:      -4.2      2.568      2.759
REMARK  5 active torsions:
REMARK  status: ('A' for Active; 'I' for Inactive)
REMARK    1  A    between atoms: C_1  and  C_9 
REMARK    2  A    between atoms: N_4  and  C_8 
REMARK    3  A    between atoms: C_8  and  C_17 
REMARK    4  A    between atoms: C_12  and  O_16 
REMARK    5  A    between atoms: O_16  and  C_17 
ROOT
HETATM    1  C   UNL     1      64.221   7.508   5.577  1.00  0.00    -0.003 A 
HETATM    2  C   UNL     1      63.106   6.661   5.641  1.00  0.00     0.017 A 
HETATM    3  C   UNL     1      64.151   8.663   4.790  1.00  0.00     0.017 A 
HETATM    4  C   UNL     1      61.866   8.131   4.161  1.00  0.00     0.070 A 
HETATM    5  C   UNL     1      62.975   8.978   4.102  1.00  0.00     0.038 A 
HETATM    6  C   UNL     1      61.934   6.973   4.938  1.00  0.00     0.038 A 
ENDROOT
BRANCH   1   7
HETATM    7  C   UNL     1      65.478   7.222   6.309  1.00  0.00     0.076 C 
HETATM    8  N   UNL     1      65.515   6.946   7.575  1.00  0.00    -0.383 N 
HETATM    9  C   UNL     1      66.920   6.763   7.999  1.00  0.00     0.131 C 
ATOM     10  HN  UNL     1      64.702   6.868   8.184  1.00  0.00     0.160 HD
HETATM   11  C   UNL     1      67.754   6.287   6.823  1.00  0.00     0.100 C 
HETATM   12  S   UNL     1      67.002   7.169   5.444  1.00  0.00    -0.110 SA
ENDBRANCH   1   7
BRANCH   4  13
HETATM   13  O   UNL     1      60.767   8.560   3.464  1.00  0.00    -0.339 OA
BRANCH  13  14
HETATM   14  C   UNL     1      59.870   7.539   3.020  1.00  0.00     0.279 C 
BRANCH  14  15
HETATM   15  C   UNL     1      58.556   7.616   3.780  1.00  0.00    -0.051 C 
BRANCH  15  16
HETATM   16  N   UNL     1      57.466   7.681   4.411  1.00  0.00    -0.368 N 
ATOM     17  HN2 UNL     1      58.364   7.657   3.927  1.00  0.00     0.165 HD
ATOM     18  HN1 UNL     1      56.584   7.732   4.921  1.00  0.00     0.165 HD
ENDBRANCH  15  16
ENDBRANCH  14  15
ENDBRANCH  13  14
ENDBRANCH   4  13
TORSDOF 5
ENDMDL
MODEL 9
REMARK VINA RESULT:      -4.0      3.687      6.531
REMARK  5 active torsions:
REMARK  status: ('A' for Active; 'I' for Inactive)
REMARK    1  A    between atoms: C_1  and  C_9 
REMARK    2  A    between atoms: N_4  and  C_8 
REMARK    3  A    between atoms: C_8  and  C_17 
REMARK    4  A    between atoms: C_12  and  O_16 
REMARK    5  A    between atoms: O_16  and  C_17 
ROOT
HETATM    1  C   UNL     1      62.371   7.390   4.353  1.00  0.00    -0.003 A 
HETATM    2  C   UNL     1      63.389   6.475   4.051  1.00  0.00     0.017 A 
HETATM    3  C   UNL     1      62.716   8.637   4.885  1.00  0.00     0.017 A 
HETATM    4  C   UNL     1      65.073   8.059   4.790  1.00  0.00     0.070 A 
HETATM    5  C   UNL     1      64.059   8.972   5.085  1.00  0.00     0.038 A 
HETATM    6  C   UNL     1      64.733   6.809   4.267  1.00  0.00     0.038 A 
ENDROOT
BRANCH   1   7
HETATM    7  C   UNL     1      60.937   7.082   4.136  1.00  0.00     0.076 C 
HETATM    8  N   UNL     1      60.213   6.433   4.993  1.00  0.00    -0.383 N 
HETATM    9  C   UNL     1      58.849   6.252   4.450  1.00  0.00     0.131 C 
ATOM     10  HN  UNL     1      60.533   6.099   5.901  1.00  0.00     0.160 HD
HETATM   11  C   UNL     1      58.528   7.378   3.482  1.00  0.00     0.100 C 
HETATM   12  S   UNL     1      60.124   7.669   2.698  1.00  0.00    -0.110 SA
ENDBRANCH   1   7
BRANCH   4  13
HETATM   13  O   UNL     1      66.348   8.513   5.006  1.00  0.00    -0.339 OA
BRANCH  13  14
HETATM   14  C   UNL     1      67.394   7.559   4.806  1.00  0.00     0.279 C 
BRANCH  14  15
HETATM   15  C   UNL     1      67.765   6.890   6.119  1.00  0.00    -0.051 C 
BRANCH  15  16
HETATM   16  N   UNL     1      68.073   6.334   7.208  1.00  0.00    -0.368 N 
ATOM     17  HN2 UNL     1      67.827   6.747   6.308  1.00  0.00     0.165 HD
ATOM     18  HN1 UNL     1      68.322   5.885   8.090  1.00  0.00     0.165 HD
ENDBRANCH  15  16
ENDBRANCH  14  15
ENDBRANCH  13  14
ENDBRANCH   4  13
TORSDOF 5
ENDMDL
