MODEL 1
REMARK VINA RESULT:      -5.2      0.000      0.000
REMARK  2 active torsions:
REMARK  status: ('A' for Active; 'I' for Inactive)
REMARK    1  A    between atoms: C_1  and  C_2 
REMARK    2  A    between atoms: C_2  and  O_5 
ROOT
HETATM    1  C   UNL     1      62.868   9.429   4.149  1.00  0.00     0.078 A 
HETATM    2  C   UNL     1      62.333  10.707   3.979  1.00  0.00     0.132 A 
HETATM    3  F   UNL     1      62.310  11.607   4.973  1.00  0.00    -0.205 F 
HETATM    4  C   UNL     1      62.858   8.542   3.059  1.00  0.00     0.021 A 
HETATM    5  C   UNL     1      61.796  11.098   2.750  1.00  0.00     0.043 A 
HETATM    6  C   UNL     1      62.321   8.932   1.829  1.00  0.00     0.001 A 
HETATM    7  C   UNL     1      61.789  10.212   1.675  1.00  0.00     0.003 A 
ENDROOT
BRANCH   1   8
HETATM    8  C   UNL     1      63.452   8.945   5.426  1.00  0.00     0.296 C 
HETATM    9  O   UNL     1      62.811   8.304   6.245  1.00  0.00    -0.259 OA
BRANCH   8  10
HETATM   10  O   UNL     1      64.751   9.304   5.557  1.00  0.00    -0.322 OA
HETATM   11  C   UNL     1      65.665   8.209   5.608  1.00  0.00     0.213 C 
ENDBRANCH   8  10
ENDBRANCH   1   8
TORSDOF 2
ENDMDL
MODEL 2
REMARK VINA RESULT:      -4.9      1.466      2.063
REMARK  2 active torsions:
REMARK  status: ('A' for Active; 'I' for Inactive)
REMARK    1  A    between atoms: C_1  and  C_2 
REMARK    2  A    between atoms: C_2  and  O_5 
ROOT
HETATM    1  C   UNL     1      62.895   9.361   4.119  1.00  0.00     0.078 A 
HETATM    2  C   UNL     1      62.877   8.577   2.964  1.00  0.00     0.132 A 
HETATM    3  F   UNL     1      63.383   7.336   2.938  1.00  0.00    -0.205 F 
HETATM    4  C   UNL     1      62.343  10.652   4.068  1.00  0.00     0.021 A 
HETATM    5  C   UNL     1      62.323   9.066   1.779  1.00  0.00     0.043 A 
HETATM    6  C   UNL     1      61.788  11.142   2.881  1.00  0.00     0.001 A 
HETATM    7  C   UNL     1      61.779  10.348   1.736  1.00  0.00     0.003 A 
ENDROOT
BRANCH   1   8
HETATM    8  C   UNL     1      63.469   8.907   5.412  1.00  0.00     0.296 C 
HETATM    9  O   UNL     1      62.819   8.291   6.243  1.00  0.00    -0.259 OA
BRANCH   8  10
HETATM   10  O   UNL     1      64.769   9.262   5.541  1.00  0.00    -0.322 OA
HETATM   11  C   UNL     1      65.686   8.167   5.523  1.00  0.00     0.213 C 
ENDBRANCH   8  10
ENDBRANCH   1   8
TORSDOF 2
ENDMDL
MODEL 3
REMARK VINA RESULT:      -4.2      2.110      2.887
REMARK  2 active torsions:
REMARK  status: ('A' for Active; 'I' for Inactive)
REMARK    1  A    between atoms: C_1  and  C_2 
REMARK    2  A    between atoms: C_2  and  O_5 
ROOT
HETATM    1  C   UNL     1      64.039   8.593   4.508  1.00  0.00     0.078 A 
HETATM    2  C   UNL     1      63.642   7.882   3.374  1.00  0.00     0.132 A 
HETATM    3  F   UNL     1      64.296   6.790   2.954  1.00  0.00    -0.205 F 
HETATM    4  C   UNL     1      63.301   9.727   4.887  1.00  0.00     0.021 A 
HETATM    5  C   UNL     1      62.534   8.290   2.628  1.00  0.00     0.043 A 
HETATM    6  C   UNL     1      62.192  10.136   4.140  1.00  0.00     0.001 A 
HETATM    7  C   UNL     1      61.809   9.417   3.009  1.00  0.00     0.003 A 
ENDROOT
BRANCH   1   8
HETATM    8  C   UNL     1      65.207   8.218   5.346  1.00  0.00     0.296 C 
HETATM    9  O   UNL     1      66.361   8.386   4.983  1.00  0.00    -0.259 OA
BRANCH   8  10
HETATM   10  O   UNL     1      64.829   7.680   6.529  1.00  0.00    -0.322 OA
HETATM   11  C   UNL     1      65.822   6.863   7.151  1.00  0.00     0.213 C 
ENDBRANCH   8  10
ENDBRANCH   1   8
TORSDOF 2
ENDMDL
MODEL 4
REMARK VINA RESULT:      -4.2      1.512      1.610
REMARK  2 active torsions:
REMARK  status: ('A' for Active; 'I' for Inactive)
REMARK    1  A    between atoms: C_1  and  C_2 
REMARK    2  A    between atoms: C_2  and  O_5 
ROOT
HETATM    1  C   UNL     1      62.684   8.920   3.493  1.00  0.00     0.078 A 
HETATM    2  C   UNL     1      62.439  10.116   4.170  1.00  0.00     0.132 A 
HETATM    3  F   UNL     1      62.659  10.246   5.486  1.00  0.00    -0.205 F 
HETATM    4  C   UNL     1      62.430   8.862   2.112  1.00  0.00     0.021 A 
HETATM    5  C   UNL     1      61.950  11.234   3.490  1.00  0.00     0.043 A 
HETATM    6  C   UNL     1      61.940   9.981   1.430  1.00  0.00     0.001 A 
HETATM    7  C   UNL     1      61.699  11.167   2.122  1.00  0.00     0.003 A 
ENDROOT
BRANCH   1   8
HETATM    8  C   UNL     1      63.201   7.693   4.151  1.00  0.00     0.296 C 
HETATM    9  O   UNL     1      62.471   6.879   4.698  1.00  0.00    -0.259 OA
BRANCH   8  10
HETATM   10  O   UNL     1      64.548   7.603   4.068  1.00  0.00    -0.322 OA
HETATM   11  C   UNL     1      65.030   6.342   3.602  1.00  0.00     0.213 C 
ENDBRANCH   8  10
ENDBRANCH   1   8
TORSDOF 2
ENDMDL
MODEL 5
REMARK VINA RESULT:      -4.2      2.874      4.413
REMARK  2 active torsions:
REMARK  status: ('A' for Active; 'I' for Inactive)
REMARK    1  A    between atoms: C_1  and  C_2 
REMARK    2  A    between atoms: C_2  and  O_5 
ROOT
HETATM    1  C   UNL     1      62.267   9.446   2.850  1.00  0.00     0.078 A 
HETATM    2  C   UNL     1      63.071   8.747   3.751  1.00  0.00     0.132 A 
HETATM    3  F   UNL     1      63.520   7.510   3.492  1.00  0.00    -0.205 F 
HETATM    4  C   UNL     1      61.837  10.740   3.192  1.00  0.00     0.021 A 
HETATM    5  C   UNL     1      63.439   9.318   4.971  1.00  0.00     0.043 A 
HETATM    6  C   UNL     1      62.204  11.313   4.413  1.00  0.00     0.001 A 
HETATM    7  C   UNL     1      63.006  10.600   5.304  1.00  0.00     0.003 A 
ENDROOT
BRANCH   1   8
HETATM    8  C   UNL     1      61.835   8.901   1.538  1.00  0.00     0.296 C 
HETATM    9  O   UNL     1      62.378   9.204   0.485  1.00  0.00    -0.259 OA
BRANCH   8  10
HETATM   10  O   UNL     1      60.789   8.051   1.662  1.00  0.00    -0.322 OA
HETATM   11  C   UNL     1      59.786   8.197   0.656  1.00  0.00     0.213 C 
ENDBRANCH   8  10
ENDBRANCH   1   8
TORSDOF 2
ENDMDL
MODEL 6
REMARK VINA RESULT:      -4.1      2.131      2.739
REMARK  2 active torsions:
REMARK  status: ('A' for Active; 'I' for Inactive)
REMARK    1  A    between atoms: C_1  and  C_2 
REMARK    2  A    between atoms: C_2  and  O_5 
ROOT
HETATM    1  C   UNL     1      62.726   8.982   3.496  1.00  0.00     0.078 A 
HETATM    2  C   UNL     1      62.426   9.152   2.144  1.00  0.00     0.132 A 
HETATM    3  F   UNL     1      62.597   8.168   1.249  1.00  0.00    -0.205 F 
HETATM    4  C   UNL     1      62.518  10.060   4.374  1.00  0.00     0.021 A 
HETATM    5  C   UNL     1      61.932  10.369   1.669  1.00  0.00     0.043 A 
HETATM    6  C   UNL     1      62.024  11.279   3.900  1.00  0.00     0.001 A 
HETATM    7  C   UNL     1      61.731  11.433   2.546  1.00  0.00     0.003 A 
ENDROOT
BRANCH   1   8
HETATM    8  C   UNL     1      63.256   7.719   4.069  1.00  0.00     0.296 C 
HETATM    9  O   UNL     1      64.319   7.229   3.717  1.00  0.00    -0.259 OA
BRANCH   8  10
HETATM   10  O   UNL     1      62.427   7.198   5.003  1.00  0.00    -0.322 OA
HETATM   11  C   UNL     1      63.060   6.871   6.240  1.00  0.00     0.213 C 
ENDBRANCH   8  10
ENDBRANCH   1   8
TORSDOF 2
ENDMDL
MODEL 7
REMARK VINA RESULT:      -4.0      2.415      4.038
REMARK  2 active torsions:
REMARK  status: ('A' for Active; 'I' for Inactive)
REMARK    1  A    between atoms: C_1  and  C_2 
REMARK    2  A    between atoms: C_2  and  O_5 
ROOT
HETATM    1  C   UNL     1      62.698   9.200   4.420  1.00  0.00     0.078 A 
HETATM    2  C   UNL     1      61.936   8.031   4.423  1.00  0.00     0.132 A 
HETATM    3  F   UNL     1      60.676   8.002   3.966  1.00  0.00    -0.205 F 
HETATM    4  C   UNL     1      64.012   9.151   4.914  1.00  0.00     0.021 A 
HETATM    5  C   UNL     1      62.467   6.834   4.911  1.00  0.00     0.043 A 
HETATM    6  C   UNL     1      64.545   7.953   5.402  1.00  0.00     0.001 A 
HETATM    7  C   UNL     1      63.770   6.794   5.401  1.00  0.00     0.003 A 
ENDROOT
BRANCH   1   8
HETATM    8  C   UNL     1      62.198  10.507   3.921  1.00  0.00     0.296 C 
HETATM    9  O   UNL     1      62.040  11.475   4.649  1.00  0.00    -0.259 OA
BRANCH   8  10
HETATM   10  O   UNL     1      61.945  10.477   2.592  1.00  0.00    -0.322 OA
HETATM   11  C   UNL     1      61.763  11.762   1.996  1.00  0.00     0.213 C 
ENDBRANCH   8  10
ENDBRANCH   1   8
TORSDOF 2
ENDMDL
MODEL 8
REMARK VINA RESULT:      -3.9      3.913      6.754
REMARK  2 active torsions:
REMARK  status: ('A' for Active; 'I' for Inactive)
REMARK    1  A    between atoms: C_1  and  C_2 
REMARK    2  A    between atoms: C_2  and  O_5 
ROOT
HETATM    1  C   UNL     1      67.274   6.612   6.494  1.00  0.00     0.078 A 
HETATM    2  C   UNL     1      67.254   6.441   7.879  1.00  0.00     0.132 A 
HETATM    3  F   UNL     1      67.127   7.476   8.722  1.00  0.00    -0.205 F 
HETATM    4  C   UNL     1      67.408   5.478   5.675  1.00  0.00     0.021 A 
HETATM    5  C   UNL     1      67.369   5.168   8.442  1.00  0.00     0.043 A 
HETATM    6  C   UNL     1      67.524   4.203   6.238  1.00  0.00     0.001 A 
HETATM    7  C   UNL     1      67.504   4.049   7.623  1.00  0.00     0.003 A 
ENDROOT
BRANCH   1   8
HETATM    8  C   UNL     1      67.159   7.935   5.827  1.00  0.00     0.296 C 
HETATM    9  O   UNL     1      67.996   8.352   5.039  1.00  0.00    -0.259 OA
BRANCH   8  10
HETATM   10  O   UNL     1      66.039   8.596   6.201  1.00  0.00    -0.322 OA
HETATM   11  C   UNL     1      64.947   8.472   5.290  1.00  0.00     0.213 C 
ENDBRANCH   8  10
ENDBRANCH   1   8
TORSDOF 2
ENDMDL
MODEL 9
REMARK VINA RESULT:      -3.9      2.397      2.924
REMARK  2 active torsions:
REMARK  status: ('A' for Active; 'I' for Inactive)
REMARK    1  A    between atoms: C_1  and  C_2 
REMARK    2  A    between atoms: C_2  and  O_5 
ROOT
HETATM    1  C   UNL     1      61.402   9.296   3.068  1.00  0.00     0.078 A 
HETATM    2  C   UNL     1      61.672   9.362   1.700  1.00  0.00     0.132 A 
HETATM    3  F   UNL     1      62.465  10.308   1.176  1.00  0.00    -0.205 F 
HETATM    4  C   UNL     1      60.562   8.274   3.542  1.00  0.00     0.021 A 
HETATM    5  C   UNL     1      61.116   8.433   0.818  1.00  0.00     0.043 A 
HETATM    6  C   UNL     1      60.006   7.343   2.660  1.00  0.00     0.001 A 
HETATM    7  C   UNL     1      60.283   7.424   1.296  1.00  0.00     0.003 A 
ENDROOT
BRANCH   1   8
HETATM    8  C   UNL     1      61.955  10.251   4.062  1.00  0.00     0.296 C 
HETATM    9  O   UNL     1      61.790  11.459   3.980  1.00  0.00    -0.259 OA
BRANCH   8  10
HETATM   10  O   UNL     1      62.648   9.621   5.039  1.00  0.00    -0.322 OA
HETATM   11  C   UNL     1      63.938   9.155   4.643  1.00  0.00     0.213 C 
ENDBRANCH   8  10
ENDBRANCH   1   8
TORSDOF 2
ENDMDL
