MODEL 1
REMARK VINA RESULT:      -5.0      0.000      0.000
REMARK  1 active torsions:
REMARK  status: ('A' for Active; 'I' for Inactive)
REMARK    1  A    between atoms: C_1  and  N_2 
ROOT
HETATM    1  C   UNL     1      62.886   9.172   4.060  1.00  0.00     0.077 A 
HETATM    2  C   UNL     1      62.478  10.504   4.338  1.00  0.00     0.077 A 
HETATM    3  C   UNL     1      62.593   8.730   2.741  1.00  0.00     0.077 A 
HETATM    4  N   UNL     1      61.594  10.853   2.099  1.00  0.00    -0.372 N 
ATOM      5  HN  UNL     1      61.143  11.449   1.404  1.00  0.00     0.164 HD
HETATM    6 CL   UNL     1      62.816  11.346   5.817  1.00  0.00    -0.080 Cl
HETATM    7 CL   UNL     1      62.847   7.111   2.172  1.00  0.00    -0.080 Cl
HETATM    8  C   UNL     1      61.986   9.595   1.823  1.00  0.00     0.113 A 
HETATM    9  C   UNL     1      61.840  11.270   3.357  1.00  0.00     0.113 A 
ENDROOT
BRANCH   1  10
HETATM   10  N   UNL     1      63.558   8.381   4.991  1.00  0.00    -0.375 N 
HETATM   11  C   UNL     1      65.025   8.349   5.129  1.00  0.00     0.150 C 
HETATM   12  C   UNL     1      65.514   6.879   5.143  1.00  0.00     0.252 C 
HETATM   13  N   UNL     1      64.891   6.077   6.220  1.00  0.00    -0.072 N 
HETATM   14  C   UNL     1      63.422   6.148   6.076  1.00  0.00     0.252 C 
HETATM   15  H   UNL     1      65.197   5.107   6.148  1.00  0.00     0.277 HD
HETATM   16  H   UNL     1      65.168   6.445   7.131  1.00  0.00     0.277 HD
HETATM   17  C   UNL     1      62.852   7.584   6.011  1.00  0.00     0.150 C 
ENDBRANCH   1  10
TORSDOF 1
ENDMDL
MODEL 2
REMARK VINA RESULT:      -5.0      0.120      2.455
REMARK  1 active torsions:
REMARK  status: ('A' for Active; 'I' for Inactive)
REMARK    1  A    between atoms: C_1  and  N_2 
ROOT
HETATM    1  C   UNL     1      62.945   9.142   4.088  1.00  0.00     0.077 A 
HETATM    2  C   UNL     1      62.668   8.669   2.778  1.00  0.00     0.077 A 
HETATM    3  C   UNL     1      62.510  10.472   4.337  1.00  0.00     0.077 A 
HETATM    4  N   UNL     1      61.584  10.740   2.104  1.00  0.00    -0.372 N 
ATOM      5  HN  UNL     1      61.097  11.302   1.406  1.00  0.00     0.164 HD
HETATM    6 CL   UNL     1      62.971   7.050   2.233  1.00  0.00    -0.080 Cl
HETATM    7 CL   UNL     1      62.842  11.353   5.795  1.00  0.00    -0.080 Cl
HETATM    8  C   UNL     1      61.834  11.194   3.347  1.00  0.00     0.113 A 
HETATM    9  C   UNL     1      62.021   9.491   1.849  1.00  0.00     0.113 A 
ENDROOT
BRANCH   1  10
HETATM   10  N   UNL     1      63.555   8.350   5.060  1.00  0.00    -0.375 N 
HETATM   11  C   UNL     1      65.012   8.298   5.275  1.00  0.00     0.150 C 
HETATM   12  C   UNL     1      65.477   6.821   5.329  1.00  0.00     0.252 C 
HETATM   13  N   UNL     1      64.786   6.039   6.379  1.00  0.00    -0.072 N 
HETATM   14  C   UNL     1      63.328   6.130   6.156  1.00  0.00     0.252 C 
HETATM   15  H   UNL     1      65.081   5.064   6.332  1.00  0.00     0.277 HD
HETATM   16  H   UNL     1      65.020   6.412   7.300  1.00  0.00     0.277 HD
HETATM   17  C   UNL     1      62.783   7.574   6.048  1.00  0.00     0.150 C 
ENDBRANCH   1  10
TORSDOF 1
ENDMDL
MODEL 3
REMARK VINA RESULT:      -4.1      1.899      4.483
REMARK  1 active torsions:
REMARK  status: ('A' for Active; 'I' for Inactive)
REMARK    1  A    between atoms: C_1  and  N_2 
ROOT
HETATM    1  C   UNL     1      63.290   8.155   3.599  1.00  0.00     0.077 A 
HETATM    2  C   UNL     1      63.850   8.918   4.657  1.00  0.00     0.077 A 
HETATM    3  C   UNL     1      64.037   6.995   3.251  1.00  0.00     0.077 A 
HETATM    4  N   UNL     1      65.728   7.401   4.952  1.00  0.00    -0.372 N 
ATOM      5  HN  UNL     1      66.586   7.131   5.434  1.00  0.00     0.164 HD
HETATM    6 CL   UNL     1      63.094  10.307   5.372  1.00  0.00    -0.080 Cl
HETATM    7 CL   UNL     1      63.669   5.961   1.908  1.00  0.00    -0.080 Cl
HETATM    8  C   UNL     1      65.200   6.665   3.955  1.00  0.00     0.113 A 
HETATM    9  C   UNL     1      65.043   8.518   5.267  1.00  0.00     0.113 A 
ENDROOT
BRANCH   1  10
HETATM   10  N   UNL     1      62.085   8.491   2.983  1.00  0.00    -0.375 N 
HETATM   11  C   UNL     1      60.762   8.213   3.570  1.00  0.00     0.150 C 
HETATM   12  C   UNL     1      59.860   7.525   2.517  1.00  0.00     0.252 C 
HETATM   13  N   UNL     1      59.703   8.327   1.282  1.00  0.00    -0.072 N 
HETATM   14  C   UNL     1      61.042   8.613   0.729  1.00  0.00     0.252 C 
HETATM   15  H   UNL     1      59.153   7.804   0.600  1.00  0.00     0.277 HD
HETATM   16  H   UNL     1      59.221   9.201   1.496  1.00  0.00     0.277 HD
HETATM   17  C   UNL     1      62.024   9.267   1.730  1.00  0.00     0.150 C 
ENDBRANCH   1  10
TORSDOF 1
ENDMDL
MODEL 4
REMARK VINA RESULT:      -4.0      1.808      2.934
REMARK  1 active torsions:
REMARK  status: ('A' for Active; 'I' for Inactive)
REMARK    1  A    between atoms: C_1  and  N_2 
ROOT
HETATM    1  C   UNL     1      62.562   8.972   3.200  1.00  0.00     0.077 A 
HETATM    2  C   UNL     1      62.219   9.276   1.856  1.00  0.00     0.077 A 
HETATM    3  C   UNL     1      62.425  10.063   4.103  1.00  0.00     0.077 A 
HETATM    4  N   UNL     1      61.635  11.580   2.373  1.00  0.00    -0.372 N 
ATOM      5  HN  UNL     1      61.302  12.499   2.082  1.00  0.00     0.164 HD
HETATM    6 CL   UNL     1      62.170   8.113   0.569  1.00  0.00    -0.080 Cl
HETATM    7 CL   UNL     1      62.907  10.021   5.769  1.00  0.00    -0.080 Cl
HETATM    8  C   UNL     1      61.949  11.299   3.652  1.00  0.00     0.113 A 
HETATM    9  C   UNL     1      61.792  10.561   1.505  1.00  0.00     0.113 A 
ENDROOT
BRANCH   1  10
HETATM   10  N   UNL     1      62.958   7.699   3.607  1.00  0.00    -0.375 N 
HETATM   11  C   UNL     1      64.361   7.248   3.629  1.00  0.00     0.150 C 
HETATM   12  C   UNL     1      64.477   5.876   2.920  1.00  0.00     0.252 C 
HETATM   13  N   UNL     1      63.607   4.841   3.524  1.00  0.00    -0.072 N 
HETATM   14  C   UNL     1      62.213   5.329   3.514  1.00  0.00     0.252 C 
HETATM   15  H   UNL     1      63.674   3.978   2.985  1.00  0.00     0.277 HD
HETATM   16  H   UNL     1      63.904   4.656   4.483  1.00  0.00     0.277 HD
HETATM   17  C   UNL     1      62.012   6.716   4.168  1.00  0.00     0.150 C 
ENDBRANCH   1  10
TORSDOF 1
ENDMDL
MODEL 5
REMARK VINA RESULT:      -3.8      2.648      3.463
REMARK  1 active torsions:
REMARK  status: ('A' for Active; 'I' for Inactive)
REMARK    1  A    between atoms: C_1  and  N_2 
ROOT
HETATM    1  C   UNL     1      61.067   7.869   2.600  1.00  0.00     0.077 A 
HETATM    2  C   UNL     1      59.881   7.271   3.102  1.00  0.00     0.077 A 
HETATM    3  C   UNL     1      60.984   8.293   1.245  1.00  0.00     0.077 A 
HETATM    4  N   UNL     1      58.676   7.565   1.010  1.00  0.00    -0.372 N 
ATOM      5  HN  UNL     1      57.829   7.464   0.450  1.00  0.00     0.164 HD
HETATM    6 CL   UNL     1      59.652   6.775   4.749  1.00  0.00    -0.080 Cl
HETATM    7 CL   UNL     1      62.320   8.923   0.334  1.00  0.00    -0.080 Cl
HETATM    8  C   UNL     1      59.793   8.143   0.528  1.00  0.00     0.113 A 
HETATM    9  C   UNL     1      58.755   7.132   2.283  1.00  0.00     0.113 A 
ENDROOT
BRANCH   1  10
HETATM   10  N   UNL     1      62.203   8.063   3.385  1.00  0.00    -0.375 N 
HETATM   11  C   UNL     1      63.158   6.991   3.720  1.00  0.00     0.150 C 
HETATM   12  C   UNL     1      63.427   6.992   5.245  1.00  0.00     0.252 C 
HETATM   13  N   UNL     1      63.939   8.292   5.737  1.00  0.00    -0.072 N 
HETATM   14  C   UNL     1      62.978   9.351   5.366  1.00  0.00     0.252 C 
HETATM   15  H   UNL     1      64.041   8.260   6.752  1.00  0.00     0.277 HD
HETATM   16  H   UNL     1      64.849   8.486   5.319  1.00  0.00     0.277 HD
HETATM   17  C   UNL     1      62.620   9.395   3.862  1.00  0.00     0.150 C 
ENDBRANCH   1  10
TORSDOF 1
ENDMDL
MODEL 6
REMARK VINA RESULT:      -3.7      2.887      4.538
REMARK  1 active torsions:
REMARK  status: ('A' for Active; 'I' for Inactive)
REMARK    1  A    between atoms: C_1  and  N_2 
ROOT
HETATM    1  C   UNL     1      63.984   6.227   6.031  1.00  0.00     0.077 A 
HETATM    2  C   UNL     1      62.957   5.254   6.149  1.00  0.00     0.077 A 
HETATM    3  C   UNL     1      63.568   7.452   5.441  1.00  0.00     0.077 A 
HETATM    4  N   UNL     1      61.269   6.706   5.171  1.00  0.00    -0.372 N 
ATOM      5  HN  UNL     1      60.309   6.877   4.873  1.00  0.00     0.164 HD
HETATM    6 CL   UNL     1      63.144   3.720   6.940  1.00  0.00    -0.080 Cl
HETATM    7 CL   UNL     1      64.637   8.759   5.043  1.00  0.00    -0.080 Cl
HETATM    8  C   UNL     1      62.234   7.639   5.063  1.00  0.00     0.113 A 
HETATM    9  C   UNL     1      61.662   5.530   5.700  1.00  0.00     0.113 A 
ENDROOT
BRANCH   1  10
HETATM   10  N   UNL     1      65.281   6.013   6.495  1.00  0.00    -0.375 N 
HETATM   11  C   UNL     1      65.671   6.130   7.912  1.00  0.00     0.150 C 
HETATM   12  C   UNL     1      66.935   7.018   8.032  1.00  0.00     0.252 C 
HETATM   13  N   UNL     1      68.075   6.506   7.238  1.00  0.00    -0.072 N 
HETATM   14  C   UNL     1      67.650   6.373   5.829  1.00  0.00     0.252 C 
HETATM   15  H   UNL     1      68.858   7.156   7.301  1.00  0.00     0.277 HD
HETATM   16  H   UNL     1      68.368   5.598   7.599  1.00  0.00     0.277 HD
HETATM   17  C   UNL     1      66.368   5.532   5.621  1.00  0.00     0.150 C 
ENDBRANCH   1  10
TORSDOF 1
ENDMDL
MODEL 7
REMARK VINA RESULT:      -3.7      2.150      4.914
REMARK  1 active torsions:
REMARK  status: ('A' for Active; 'I' for Inactive)
REMARK    1  A    between atoms: C_1  and  N_2 
ROOT
HETATM    1  C   UNL     1      62.080   7.589   4.581  1.00  0.00     0.077 A 
HETATM    2  C   UNL     1      60.779   7.027   4.663  1.00  0.00     0.077 A 
HETATM    3  C   UNL     1      63.051   6.948   5.399  1.00  0.00     0.077 A 
HETATM    4  N   UNL     1      61.463   5.313   6.248  1.00  0.00    -0.372 N 
ATOM      5  HN  UNL     1      61.247   4.505   6.832  1.00  0.00     0.164 HD
HETATM    6 CL   UNL     1      59.431   7.522   3.689  1.00  0.00    -0.080 Cl
HETATM    7 CL   UNL     1      64.680   7.508   5.606  1.00  0.00    -0.080 Cl
HETATM    8  C   UNL     1      62.703   5.833   6.169  1.00  0.00     0.113 A 
HETATM    9  C   UNL     1      60.530   5.934   5.501  1.00  0.00     0.113 A 
ENDROOT
BRANCH   1  10
HETATM   10  N   UNL     1      62.388   8.654   3.736  1.00  0.00    -0.375 N 
HETATM   11  C   UNL     1      62.575  10.040   4.202  1.00  0.00     0.150 C 
HETATM   12  C   UNL     1      61.733  11.002   3.328  1.00  0.00     0.252 C 
HETATM   13  N   UNL     1      62.064  10.908   1.888  1.00  0.00    -0.072 N 
HETATM   14  C   UNL     1      61.893   9.507   1.453  1.00  0.00     0.252 C 
HETATM   15  H   UNL     1      61.441  11.513   1.352  1.00  0.00     0.277 HD
HETATM   16  H   UNL     1      63.028  11.204   1.734  1.00  0.00     0.277 HD
HETATM   17  C   UNL     1      62.671   8.471   2.300  1.00  0.00     0.150 C 
ENDBRANCH   1  10
TORSDOF 1
ENDMDL
MODEL 8
REMARK VINA RESULT:      -3.7      2.722      4.667
REMARK  1 active torsions:
REMARK  status: ('A' for Active; 'I' for Inactive)
REMARK    1  A    between atoms: C_1  and  N_2 
ROOT
HETATM    1  C   UNL     1      61.727   8.048   3.701  1.00  0.00     0.077 A 
HETATM    2  C   UNL     1      62.210   9.384   3.698  1.00  0.00     0.077 A 
HETATM    3  C   UNL     1      62.042   7.312   4.876  1.00  0.00     0.077 A 
HETATM    4  N   UNL     1      63.202   9.184   5.909  1.00  0.00    -0.372 N 
ATOM      5  HN  UNL     1      63.718   9.587   6.691  1.00  0.00     0.164 HD
HETATM    6 CL   UNL     1      61.870  10.548   2.456  1.00  0.00    -0.080 Cl
HETATM    7 CL   UNL     1      61.706   5.624   5.093  1.00  0.00    -0.080 Cl
HETATM    8  C   UNL     1      62.740   7.919   5.926  1.00  0.00     0.113 A 
HETATM    9  C   UNL     1      62.935   9.879   4.786  1.00  0.00     0.113 A 
ENDROOT
BRANCH   1  10
HETATM   10  N   UNL     1      60.969   7.519   2.657  1.00  0.00    -0.375 N 
HETATM   11  C   UNL     1      61.546   7.051   1.384  1.00  0.00     0.150 C 
HETATM   12  C   UNL     1      60.761   7.668   0.200  1.00  0.00     0.252 C 
HETATM   13  N   UNL     1      59.315   7.352   0.242  1.00  0.00    -0.072 N 
HETATM   14  C   UNL     1      58.768   7.807   1.536  1.00  0.00     0.252 C 
HETATM   15  H   UNL     1      58.836   7.831  -0.521  1.00  0.00     0.277 HD
HETATM   16  H   UNL     1      59.178   6.346   0.141  1.00  0.00     0.277 HD
HETATM   17  C   UNL     1      59.520   7.269   2.777  1.00  0.00     0.150 C 
ENDBRANCH   1  10
TORSDOF 1
ENDMDL
MODEL 9
REMARK VINA RESULT:      -3.7      3.599      7.018
REMARK  1 active torsions:
REMARK  status: ('A' for Active; 'I' for Inactive)
REMARK    1  A    between atoms: C_1  and  N_2 
ROOT
HETATM    1  C   UNL     1      66.388   5.478   7.082  1.00  0.00     0.077 A 
HETATM    2  C   UNL     1      66.719   4.378   6.248  1.00  0.00     0.077 A 
HETATM    3  C   UNL     1      66.945   5.412   8.390  1.00  0.00     0.077 A 
HETATM    4  N   UNL     1      68.075   3.302   7.956  1.00  0.00    -0.372 N 
ATOM      5  HN  UNL     1      68.676   2.537   8.263  1.00  0.00     0.164 HD
HETATM    6 CL   UNL     1      66.286   4.252   4.572  1.00  0.00    -0.080 Cl
HETATM    7 CL   UNL     1      66.593   6.539   9.660  1.00  0.00    -0.080 Cl
HETATM    8  C   UNL     1      67.774   4.346   8.753  1.00  0.00     0.113 A 
HETATM    9  C   UNL     1      67.526   3.341   6.726  1.00  0.00     0.113 A 
ENDROOT
BRANCH   1  10
HETATM   10  N   UNL     1      65.618   6.553   6.642  1.00  0.00    -0.375 N 
HETATM   11  C   UNL     1      64.145   6.531   6.577  1.00  0.00     0.150 C 
HETATM   12  C   UNL     1      63.678   7.024   5.185  1.00  0.00     0.252 C 
HETATM   13  N   UNL     1      64.175   8.381   4.861  1.00  0.00    -0.072 N 
HETATM   14  C   UNL     1      65.648   8.382   4.958  1.00  0.00     0.252 C 
HETATM   15  H   UNL     1      63.892   8.633   3.913  1.00  0.00     0.277 HD
HETATM   16  H   UNL     1      63.783   9.059   5.515  1.00  0.00     0.277 HD
HETATM   17  C   UNL     1      66.204   7.864   6.305  1.00  0.00     0.150 C 
ENDBRANCH   1  10
TORSDOF 1
ENDMDL
