MODEL 1
REMARK VINA RESULT:      -5.0      0.000      0.000
REMARK  2 active torsions:
REMARK  status: ('A' for Active; 'I' for Inactive)
REMARK    1  A    between atoms: N_1  and  C_3 
REMARK    2  A    between atoms: C_10  and  N_11 
ROOT
HETATM    1  C   UNL     1      63.843   8.624   4.801  1.00  0.00     0.030 A 
HETATM    2  C   UNL     1      63.360   9.846   5.273  1.00  0.00     0.031 A 
HETATM    3  C   UNL     1      63.441   8.237   3.514  1.00  0.00     0.031 A 
HETATM    4  C   UNL     1      62.054  10.204   3.250  1.00  0.00     0.025 A 
HETATM    5  C   UNL     1      62.501  10.640   4.497  1.00  0.00     0.031 A 
HETATM    6  C   UNL     1      62.575   9.018   2.743  1.00  0.00     0.031 A 
ENDROOT
BRANCH   1   7
HETATM    7  N   UNL     1      64.642   7.776   5.546  1.00  0.00    -0.378 N 
HETATM    8  C   UNL     1      66.060   8.058   5.794  1.00  0.00     0.150 C 
HETATM    9  C   UNL     1      66.459   7.430   7.156  1.00  0.00     0.254 C 
HETATM   10  N   UNL     1      66.170   5.976   7.240  1.00  0.00    -0.072 N 
HETATM   11  C   UNL     1      64.745   5.734   6.909  1.00  0.00     0.254 C 
HETATM   12  C   UNL     1      66.470   5.472   8.579  1.00  0.00     0.269 C 
HETATM   13  H   UNL     1      66.760   5.482   6.570  1.00  0.00     0.279 HD
HETATM   14  C   UNL     1      64.332   6.336   5.547  1.00  0.00     0.150 C 
ENDBRANCH   1   7
BRANCH   4  15
HETATM   15  N   UNL     1      61.282  11.037   2.434  1.00  0.00    -0.399 N 
HETATM   16  H   UNL     1      61.388  12.014   2.488  1.00  0.00     0.156 HD
HETATM   17  H   UNL     1      60.632  10.647   1.805  1.00  0.00     0.156 HD
ENDBRANCH   4  15
TORSDOF 2
ENDMDL
MODEL 2
REMARK VINA RESULT:      -5.0      0.784      1.475
REMARK  2 active torsions:
REMARK  status: ('A' for Active; 'I' for Inactive)
REMARK    1  A    between atoms: N_1  and  C_3 
REMARK    2  A    between atoms: C_10  and  N_11 
ROOT
HETATM    1  C   UNL     1      63.563   8.690   4.701  1.00  0.00     0.030 A 
HETATM    2  C   UNL     1      63.150   9.936   5.178  1.00  0.00     0.031 A 
HETATM    3  C   UNL     1      63.193   8.358   3.389  1.00  0.00     0.031 A 
HETATM    4  C   UNL     1      61.969  10.428   3.107  1.00  0.00     0.025 A 
HETATM    5  C   UNL     1      62.389  10.807   4.382  1.00  0.00     0.031 A 
HETATM    6  C   UNL     1      62.424   9.216   2.598  1.00  0.00     0.031 A 
ENDROOT
BRANCH   1   7
HETATM    7  N   UNL     1      64.261   7.771   5.462  1.00  0.00    -0.378 N 
HETATM    8  C   UNL     1      63.590   6.866   6.402  1.00  0.00     0.150 C 
HETATM    9  C   UNL     1      64.422   5.561   6.513  1.00  0.00     0.254 C 
HETATM   10  N   UNL     1      65.836   5.797   6.901  1.00  0.00    -0.072 N 
HETATM   11  C   UNL     1      66.449   6.773   5.967  1.00  0.00     0.254 C 
HETATM   12  C   UNL     1      66.587   4.543   6.883  1.00  0.00     0.269 C 
HETATM   13  H   UNL     1      65.861   6.175   7.848  1.00  0.00     0.279 HD
HETATM   14  C   UNL     1      65.645   8.088   5.856  1.00  0.00     0.150 C 
ENDBRANCH   1   7
BRANCH   4  15
HETATM   15  N   UNL     1      61.300  11.332   2.275  1.00  0.00    -0.399 N 
HETATM   16  H   UNL     1      61.689  11.581   1.406  1.00  0.00     0.156 HD
HETATM   17  H   UNL     1      60.440  11.720   2.559  1.00  0.00     0.156 HD
ENDBRANCH   4  15
TORSDOF 2
ENDMDL
MODEL 3
REMARK VINA RESULT:      -4.7      1.112      1.840
REMARK  2 active torsions:
REMARK  status: ('A' for Active; 'I' for Inactive)
REMARK    1  A    between atoms: N_1  and  C_3 
REMARK    2  A    between atoms: C_10  and  N_11 
ROOT
HETATM    1  C   UNL     1      63.352   8.344   4.163  1.00  0.00     0.030 A 
HETATM    2  C   UNL     1      62.962   8.233   2.827  1.00  0.00     0.031 A 
HETATM    3  C   UNL     1      63.013   9.533   4.827  1.00  0.00     0.031 A 
HETATM    4  C   UNL     1      62.011  10.474   2.833  1.00  0.00     0.025 A 
HETATM    5  C   UNL     1      62.275   9.271   2.179  1.00  0.00     0.031 A 
HETATM    6  C   UNL     1      62.340  10.574   4.181  1.00  0.00     0.031 A 
ENDROOT
BRANCH   1   7
HETATM    7  N   UNL     1      64.082   7.379   4.832  1.00  0.00    -0.378 N 
HETATM    8  C   UNL     1      64.759   6.285   4.127  1.00  0.00     0.150 C 
HETATM    9  C   UNL     1      66.008   5.865   4.946  1.00  0.00     0.254 C 
HETATM   10  N   UNL     1      65.693   5.496   6.349  1.00  0.00    -0.072 N 
HETATM   11  C   UNL     1      64.946   6.601   6.997  1.00  0.00     0.254 C 
HETATM   12  C   UNL     1      66.921   5.215   7.091  1.00  0.00     0.269 C 
HETATM   13  H   UNL     1      65.117   4.654   6.349  1.00  0.00     0.279 HD
HETATM   14  C   UNL     1      63.688   7.023   6.206  1.00  0.00     0.150 C 
ENDBRANCH   1   7
BRANCH   4  15
HETATM   15  N   UNL     1      61.238  11.467   2.223  1.00  0.00    -0.399 N 
HETATM   16  H   UNL     1      60.283  11.553   2.445  1.00  0.00     0.156 HD
HETATM   17  H   UNL     1      61.649  12.080   1.571  1.00  0.00     0.156 HD
ENDBRANCH   4  15
TORSDOF 2
ENDMDL
MODEL 4
REMARK VINA RESULT:      -4.6      1.820      2.670
REMARK  2 active torsions:
REMARK  status: ('A' for Active; 'I' for Inactive)
REMARK    1  A    between atoms: N_1  and  C_3 
REMARK    2  A    between atoms: C_10  and  N_11 
ROOT
HETATM    1  C   UNL     1      62.294   8.020   3.946  1.00  0.00     0.030 A 
HETATM    2  C   UNL     1      61.051   7.385   3.997  1.00  0.00     0.031 A 
HETATM    3  C   UNL     1      62.560   8.805   2.813  1.00  0.00     0.031 A 
HETATM    4  C   UNL     1      60.433   8.241   1.803  1.00  0.00     0.025 A 
HETATM    5  C   UNL     1      60.121   7.517   2.954  1.00  0.00     0.031 A 
HETATM    6  C   UNL     1      61.642   8.928   1.767  1.00  0.00     0.031 A 
ENDROOT
BRANCH   1   7
HETATM    7  N   UNL     1      63.269   7.876   4.915  1.00  0.00    -0.378 N 
HETATM    8  C   UNL     1      63.011   7.190   6.186  1.00  0.00     0.150 C 
HETATM    9  C   UNL     1      64.335   6.552   6.683  1.00  0.00     0.254 C 
HETATM   10  N   UNL     1      65.447   7.527   6.807  1.00  0.00    -0.072 N 
HETATM   11  C   UNL     1      65.621   8.246   5.522  1.00  0.00     0.254 C 
HETATM   12  C   UNL     1      66.686   6.845   7.175  1.00  0.00     0.269 C 
HETATM   13  H   UNL     1      65.219   8.198   7.541  1.00  0.00     0.279 HD
HETATM   14  C   UNL     1      64.318   8.905   5.018  1.00  0.00     0.150 C 
ENDBRANCH   1   7
BRANCH   4  15
HETATM   15  N   UNL     1      59.471   8.458   0.812  1.00  0.00    -0.399 N 
HETATM   16  H   UNL     1      58.906   9.263   0.842  1.00  0.00     0.156 HD
HETATM   17  H   UNL     1      59.358   7.805   0.082  1.00  0.00     0.156 HD
ENDBRANCH   4  15
TORSDOF 2
ENDMDL
MODEL 5
REMARK VINA RESULT:      -4.5      1.036      5.846
REMARK  2 active torsions:
REMARK  status: ('A' for Active; 'I' for Inactive)
REMARK    1  A    between atoms: N_1  and  C_3 
REMARK    2  A    between atoms: C_10  and  N_11 
ROOT
HETATM    1  C   UNL     1      64.360   8.044   5.432  1.00  0.00     0.030 A 
HETATM    2  C   UNL     1      63.976   6.926   6.176  1.00  0.00     0.031 A 
HETATM    3  C   UNL     1      65.720   8.388   5.459  1.00  0.00     0.031 A 
HETATM    4  C   UNL     1      66.244   6.592   6.996  1.00  0.00     0.025 A 
HETATM    5  C   UNL     1      64.909   6.191   6.923  1.00  0.00     0.031 A 
HETATM    6  C   UNL     1      66.650   7.667   6.212  1.00  0.00     0.031 A 
ENDROOT
BRANCH   1   7
HETATM    7  N   UNL     1      63.473   8.838   4.728  1.00  0.00    -0.378 N 
HETATM    8  C   UNL     1      62.729   9.931   5.364  1.00  0.00     0.150 C 
HETATM    9  C   UNL     1      62.450  11.026   4.300  1.00  0.00     0.254 C 
HETATM   10  N   UNL     1      61.743  10.512   3.100  1.00  0.00    -0.072 N 
HETATM   11  C   UNL     1      62.494   9.364   2.537  1.00  0.00     0.254 C 
HETATM   12  C   UNL     1      61.608  11.566   2.097  1.00  0.00     0.269 C 
HETATM   13  H   UNL     1      60.809  10.204   3.372  1.00  0.00     0.279 HD
HETATM   14  C   UNL     1      62.766   8.253   3.576  1.00  0.00     0.150 C 
ENDBRANCH   1   7
BRANCH   4  15
HETATM   15  N   UNL     1      67.193   5.805   7.655  1.00  0.00    -0.399 N 
HETATM   16  H   UNL     1      67.043   4.837   7.759  1.00  0.00     0.156 HD
HETATM   17  H   UNL     1      68.011   6.217   8.016  1.00  0.00     0.156 HD
ENDBRANCH   4  15
TORSDOF 2
ENDMDL
MODEL 6
REMARK VINA RESULT:      -4.2      2.164      5.942
REMARK  2 active torsions:
REMARK  status: ('A' for Active; 'I' for Inactive)
REMARK    1  A    between atoms: N_1  and  C_3 
REMARK    2  A    between atoms: C_10  and  N_11 
ROOT
HETATM    1  C   UNL     1      63.900   7.878   3.887  1.00  0.00     0.030 A 
HETATM    2  C   UNL     1      64.764   6.825   3.577  1.00  0.00     0.031 A 
HETATM    3  C   UNL     1      64.300   8.745   4.915  1.00  0.00     0.031 A 
HETATM    4  C   UNL     1      66.313   7.470   5.340  1.00  0.00     0.025 A 
HETATM    5  C   UNL     1      65.968   6.640   4.272  1.00  0.00     0.031 A 
HETATM    6  C   UNL     1      65.492   8.557   5.619  1.00  0.00     0.031 A 
ENDROOT
BRANCH   1   7
HETATM    7  N   UNL     1      62.675   8.070   3.275  1.00  0.00    -0.378 N 
HETATM    8  C   UNL     1      62.308   9.346   2.649  1.00  0.00     0.150 C 
HETATM    9  C   UNL     1      61.321   9.061   1.485  1.00  0.00     0.254 C 
HETATM   10  N   UNL     1      60.121   8.296   1.908  1.00  0.00    -0.072 N 
HETATM   11  C   UNL     1      60.543   7.054   2.599  1.00  0.00     0.254 C 
HETATM   12  C   UNL     1      59.289   7.970   0.750  1.00  0.00     0.269 C 
HETATM   13  H   UNL     1      59.571   8.868   2.548  1.00  0.00     0.279 HD
HETATM   14  C   UNL     1      61.512   7.317   3.774  1.00  0.00     0.150 C 
ENDBRANCH   1   7
BRANCH   4  15
HETATM   15  N   UNL     1      67.558   7.350   5.966  1.00  0.00    -0.399 N 
HETATM   16  H   UNL     1      68.379   7.598   5.481  1.00  0.00     0.156 HD
HETATM   17  H   UNL     1      67.615   7.018   6.891  1.00  0.00     0.156 HD
ENDBRANCH   4  15
TORSDOF 2
ENDMDL
MODEL 7
REMARK VINA RESULT:      -4.1      2.204      5.842
REMARK  2 active torsions:
REMARK  status: ('A' for Active; 'I' for Inactive)
REMARK    1  A    between atoms: N_1  and  C_3 
REMARK    2  A    between atoms: C_10  and  N_11 
ROOT
HETATM    1  C   UNL     1      63.724   7.833   3.970  1.00  0.00     0.030 A 
HETATM    2  C   UNL     1      64.330   8.752   4.829  1.00  0.00     0.031 A 
HETATM    3  C   UNL     1      64.424   6.645   3.714  1.00  0.00     0.031 A 
HETATM    4  C   UNL     1      66.302   7.346   5.072  1.00  0.00     0.025 A 
HETATM    5  C   UNL     1      65.588   8.500   5.397  1.00  0.00     0.031 A 
HETATM    6  C   UNL     1      65.683   6.395   4.266  1.00  0.00     0.031 A 
ENDROOT
BRANCH   1   7
HETATM    7  N   UNL     1      62.515   8.058   3.337  1.00  0.00    -0.378 N 
HETATM    8  C   UNL     1      62.288   9.227   2.480  1.00  0.00     0.150 C 
HETATM    9  C   UNL     1      61.242   8.852   1.397  1.00  0.00     0.254 C 
HETATM   10  N   UNL     1      59.970   8.336   1.962  1.00  0.00    -0.072 N 
HETATM   11  C   UNL     1      60.257   7.205   2.876  1.00  0.00     0.254 C 
HETATM   12  C   UNL     1      59.074   7.903   0.891  1.00  0.00     0.269 C 
HETATM   13  H   UNL     1      59.512   9.084   2.483  1.00  0.00     0.279 HD
HETATM   14  C   UNL     1      61.283   7.563   3.975  1.00  0.00     0.150 C 
ENDBRANCH   1   7
BRANCH   4  15
HETATM   15  N   UNL     1      67.507   7.044   5.715  1.00  0.00    -0.399 N 
HETATM   16  H   UNL     1      67.499   6.628   6.607  1.00  0.00     0.156 HD
HETATM   17  H   UNL     1      68.365   7.249   5.276  1.00  0.00     0.156 HD
ENDBRANCH   4  15
TORSDOF 2
ENDMDL
MODEL 8
REMARK VINA RESULT:      -4.0      1.515      2.482
REMARK  2 active torsions:
REMARK  status: ('A' for Active; 'I' for Inactive)
REMARK    1  A    between atoms: N_1  and  C_3 
REMARK    2  A    between atoms: C_10  and  N_11 
ROOT
HETATM    1  C   UNL     1      62.808   7.803   4.837  1.00  0.00     0.030 A 
HETATM    2  C   UNL     1      62.040   7.690   3.677  1.00  0.00     0.031 A 
HETATM    3  C   UNL     1      63.130   9.101   5.263  1.00  0.00     0.031 A 
HETATM    4  C   UNL     1      62.014  10.104   3.363  1.00  0.00     0.025 A 
HETATM    5  C   UNL     1      61.623   8.826   2.965  1.00  0.00     0.031 A 
HETATM    6  C   UNL     1      62.728  10.233   4.550  1.00  0.00     0.031 A 
ENDROOT
BRANCH   1   7
HETATM    7  N   UNL     1      63.296   6.718   5.542  1.00  0.00    -0.378 N 
HETATM    8  C   UNL     1      62.416   5.665   6.061  1.00  0.00     0.150 C 
HETATM    9  C   UNL     1      63.210   4.333   6.108  1.00  0.00     0.254 C 
HETATM   10  N   UNL     1      64.468   4.426   6.891  1.00  0.00    -0.072 N 
HETATM   11  C   UNL     1      65.289   5.549   6.377  1.00  0.00     0.254 C 
HETATM   12  C   UNL     1      65.217   3.174   6.805  1.00  0.00     0.269 C 
HETATM   13  H   UNL     1      64.237   4.597   7.870  1.00  0.00     0.279 HD
HETATM   14  C   UNL     1      64.522   6.890   6.340  1.00  0.00     0.150 C 
ENDBRANCH   1   7
BRANCH   4  15
HETATM   15  N   UNL     1      61.515  11.240   2.716  1.00  0.00    -0.399 N 
HETATM   16  H   UNL     1      62.104  11.772   2.133  1.00  0.00     0.156 HD
HETATM   17  H   UNL     1      60.576  11.507   2.843  1.00  0.00     0.156 HD
ENDBRANCH   4  15
TORSDOF 2
ENDMDL
MODEL 9
REMARK VINA RESULT:      -3.9      3.310      5.076
REMARK  2 active torsions:
REMARK  status: ('A' for Active; 'I' for Inactive)
REMARK    1  A    between atoms: N_1  and  C_3 
REMARK    2  A    between atoms: C_10  and  N_11 
ROOT
HETATM    1  C   UNL     1      62.355   8.226   3.405  1.00  0.00     0.030 A 
HETATM    2  C   UNL     1      61.784   9.494   3.272  1.00  0.00     0.031 A 
HETATM    3  C   UNL     1      63.292   8.057   4.436  1.00  0.00     0.031 A 
HETATM    4  C   UNL     1      63.132  10.382   5.094  1.00  0.00     0.025 A 
HETATM    5  C   UNL     1      62.144  10.550   4.123  1.00  0.00     0.031 A 
HETATM    6  C   UNL     1      63.664   9.110   5.277  1.00  0.00     0.031 A 
ENDROOT
BRANCH   1   7
HETATM    7  N   UNL     1      62.081   7.169   2.558  1.00  0.00    -0.378 N 
HETATM    8  C   UNL     1      61.952   7.345   1.107  1.00  0.00     0.150 C 
HETATM    9  C   UNL     1      62.386   6.029   0.407  1.00  0.00     0.254 C 
HETATM   10  N   UNL     1      61.636   4.838   0.880  1.00  0.00    -0.072 N 
HETATM   11  C   UNL     1      61.735   4.745   2.356  1.00  0.00     0.254 C 
HETATM   12  C   UNL     1      62.165   3.624   0.261  1.00  0.00     0.269 C 
HETATM   13  H   UNL     1      60.656   4.935   0.613  1.00  0.00     0.279 HD
HETATM   14  C   UNL     1      61.290   6.038   3.074  1.00  0.00     0.150 C 
ENDBRANCH   1   7
BRANCH   4  15
HETATM   15  N   UNL     1      63.418  11.401   6.008  1.00  0.00    -0.399 N 
HETATM   16  H   UNL     1      62.856  11.517   6.808  1.00  0.00     0.156 HD
HETATM   17  H   UNL     1      64.181  12.004   5.851  1.00  0.00     0.156 HD
ENDBRANCH   4  15
TORSDOF 2
ENDMDL
