MODEL 1
REMARK VINA RESULT:      -5.3      0.000      0.000
REMARK  2 active torsions:
REMARK  status: ('A' for Active; 'I' for Inactive)
REMARK    1  A    between atoms: N_1  and  C_2 
REMARK    2  A    between atoms: C_3  and  N_12 
ROOT
HETATM    1  C   UNL     1      63.150   9.371   4.405  1.00  0.00     0.066 A 
HETATM    2  C   UNL     1      62.879  10.694   4.823  1.00  0.00     0.056 A 
HETATM    3  C   UNL     1      62.129  11.518   3.968  1.00  0.00     0.073 A 
HETATM    4  C   UNL     1      62.782   8.952   3.110  1.00  0.00     0.035 A 
HETATM    5  C   UNL     1      61.762  11.083   2.700  1.00  0.00     0.118 A 
HETATM    6  C   UNL     1      62.089   9.812   2.259  1.00  0.00     0.044 A 
HETATM    7  F   UNL     1      61.081  11.907   1.893  1.00  0.00    -0.206 F 
ENDROOT
BRANCH   1   8
HETATM    8  N   UNL     1      63.810   8.429   5.245  1.00  0.00    -0.315 N 
HETATM    9  C   UNL     1      63.245   7.505   6.094  1.00  0.00     0.188 A 
HETATM   10  N   UNL     1      64.140   6.842   6.794  1.00  0.00    -0.360 N 
HETATM   11  C   UNL     1      65.345   7.300   6.345  1.00  0.00     0.106 A 
ATOM     12  HN  UNL     1      63.970   6.141   7.514  1.00  0.00     0.166 HD
HETATM   13  C   UNL     1      65.174   8.245   5.362  1.00  0.00     0.115 A 
ENDBRANCH   1   8
BRANCH   2  14
HETATM   14  N   UNL     1      63.195  11.198   6.096  1.00  0.00    -0.397 N 
HETATM   15  H   UNL     1      63.525  10.592   6.798  1.00  0.00     0.156 HD
HETATM   16  H   UNL     1      63.086  12.158   6.286  1.00  0.00     0.156 HD
ENDBRANCH   2  14
TORSDOF 2
ENDMDL
MODEL 2
REMARK VINA RESULT:      -5.1      1.071      2.260
REMARK  2 active torsions:
REMARK  status: ('A' for Active; 'I' for Inactive)
REMARK    1  A    between atoms: N_1  and  C_2 
REMARK    2  A    between atoms: C_3  and  N_12 
ROOT
HETATM    1  C   UNL     1      62.772   9.428   4.112  1.00  0.00     0.066 A 
HETATM    2  C   UNL     1      62.514   9.078   2.767  1.00  0.00     0.056 A 
HETATM    3  C   UNL     1      62.052  10.079   1.898  1.00  0.00     0.073 A 
HETATM    4  C   UNL     1      62.445  10.718   4.578  1.00  0.00     0.035 A 
HETATM    5  C   UNL     1      61.748  11.350   2.373  1.00  0.00     0.118 A 
HETATM    6  C   UNL     1      61.931  11.677   3.706  1.00  0.00     0.044 A 
HETATM    7  F   UNL     1      61.271  12.273   1.527  1.00  0.00    -0.206 F 
ENDROOT
BRANCH   1   8
HETATM    8  N   UNL     1      63.341   8.511   5.040  1.00  0.00    -0.315 N 
HETATM    9  C   UNL     1      64.662   8.385   5.409  1.00  0.00     0.188 A 
HETATM   10  N   UNL     1      64.866   7.376   6.229  1.00  0.00    -0.360 N 
HETATM   11  C   UNL     1      63.626   6.855   6.461  1.00  0.00     0.106 A 
ATOM     12  HN  UNL     1      65.757   7.055   6.608  1.00  0.00     0.166 HD
HETATM   13  C   UNL     1      62.664   7.559   5.778  1.00  0.00     0.115 A 
ENDBRANCH   1   8
BRANCH   2  14
HETATM   14  N   UNL     1      62.817   7.825   2.207  1.00  0.00    -0.397 N 
HETATM   15  H   UNL     1      63.492   7.247   2.631  1.00  0.00     0.156 HD
HETATM   16  H   UNL     1      62.354   7.525   1.392  1.00  0.00     0.156 HD
ENDBRANCH   2  14
TORSDOF 2
ENDMDL
MODEL 3
REMARK VINA RESULT:      -4.4      3.006      5.119
REMARK  2 active torsions:
REMARK  status: ('A' for Active; 'I' for Inactive)
REMARK    1  A    between atoms: N_1  and  C_2 
REMARK    2  A    between atoms: C_3  and  N_12 
ROOT
HETATM    1  C   UNL     1      63.285   8.336   4.578  1.00  0.00     0.066 A 
HETATM    2  C   UNL     1      62.599   7.274   5.210  1.00  0.00     0.056 A 
HETATM    3  C   UNL     1      63.261   6.570   6.229  1.00  0.00     0.073 A 
HETATM    4  C   UNL     1      64.639   8.581   4.886  1.00  0.00     0.035 A 
HETATM    5  C   UNL     1      64.592   6.836   6.529  1.00  0.00     0.118 A 
HETATM    6  C   UNL     1      65.290   7.828   5.862  1.00  0.00     0.044 A 
HETATM    7  F   UNL     1      65.209   6.120   7.480  1.00  0.00    -0.206 F 
ENDROOT
BRANCH   1   8
HETATM    8  N   UNL     1      62.661   9.173   3.610  1.00  0.00    -0.315 N 
HETATM    9  C   UNL     1      62.079  10.406   3.802  1.00  0.00     0.188 A 
HETATM   10  N   UNL     1      61.515  10.877   2.711  1.00  0.00    -0.360 N 
HETATM   11  C   UNL     1      61.790   9.952   1.746  1.00  0.00     0.106 A 
ATOM     12  HN  UNL     1      60.988  11.744   2.608  1.00  0.00     0.166 HD
HETATM   13  C   UNL     1      62.531   8.915   2.260  1.00  0.00     0.115 A 
ENDBRANCH   1   8
BRANCH   2  14
HETATM   14  N   UNL     1      61.249   6.960   4.980  1.00  0.00    -0.397 N 
HETATM   15  H   UNL     1      60.982   6.028   4.808  1.00  0.00     0.156 HD
HETATM   16  H   UNL     1      60.569   7.672   4.991  1.00  0.00     0.156 HD
ENDBRANCH   2  14
TORSDOF 2
ENDMDL
MODEL 4
REMARK VINA RESULT:      -4.1      2.655      3.553
REMARK  2 active torsions:
REMARK  status: ('A' for Active; 'I' for Inactive)
REMARK    1  A    between atoms: N_1  and  C_2 
REMARK    2  A    between atoms: C_3  and  N_12 
ROOT
HETATM    1  C   UNL     1      62.163   8.507   2.542  1.00  0.00     0.066 A 
HETATM    2  C   UNL     1      62.353   8.836   3.903  1.00  0.00     0.056 A 
HETATM    3  C   UNL     1      62.196  10.177   4.289  1.00  0.00     0.073 A 
HETATM    4  C   UNL     1      61.950   9.528   1.594  1.00  0.00     0.035 A 
HETATM    5  C   UNL     1      61.972  11.169   3.342  1.00  0.00     0.118 A 
HETATM    6  C   UNL     1      61.857  10.860   1.997  1.00  0.00     0.044 A 
HETATM    7  F   UNL     1      61.866  12.445   3.736  1.00  0.00    -0.206 F 
ENDROOT
BRANCH   1   8
HETATM    8  N   UNL     1      62.197   7.162   2.074  1.00  0.00    -0.315 N 
HETATM    9  C   UNL     1      61.152   6.271   1.974  1.00  0.00     0.188 A 
HETATM   10  N   UNL     1      61.539   5.076   1.582  1.00  0.00    -0.360 N 
HETATM   11  C   UNL     1      62.879   5.199   1.352  1.00  0.00     0.106 A 
ATOM     12  HN  UNL     1      60.964   4.241   1.473  1.00  0.00     0.166 HD
HETATM   13  C   UNL     1      63.303   6.481   1.605  1.00  0.00     0.115 A 
ENDBRANCH   1   8
BRANCH   2  14
HETATM   14  N   UNL     1      62.557   7.890   4.922  1.00  0.00    -0.397 N 
HETATM   15  H   UNL     1      61.798   7.366   5.267  1.00  0.00     0.156 HD
HETATM   16  H   UNL     1      63.460   7.749   5.290  1.00  0.00     0.156 HD
ENDBRANCH   2  14
TORSDOF 2
ENDMDL
MODEL 5
REMARK VINA RESULT:      -4.1      3.261      4.881
REMARK  2 active torsions:
REMARK  status: ('A' for Active; 'I' for Inactive)
REMARK    1  A    between atoms: N_1  and  C_2 
REMARK    2  A    between atoms: C_3  and  N_12 
ROOT
HETATM    1  C   UNL     1      63.993   7.710   3.983  1.00  0.00     0.066 A 
HETATM    2  C   UNL     1      64.667   8.444   4.985  1.00  0.00     0.056 A 
HETATM    3  C   UNL     1      66.008   8.124   5.253  1.00  0.00     0.073 A 
HETATM    4  C   UNL     1      64.625   6.607   3.374  1.00  0.00     0.035 A 
HETATM    5  C   UNL     1      66.620   7.041   4.631  1.00  0.00     0.118 A 
HETATM    6  C   UNL     1      65.939   6.274   3.701  1.00  0.00     0.044 A 
HETATM    7  F   UNL     1      67.888   6.736   4.937  1.00  0.00    -0.206 F 
ENDROOT
BRANCH   1   8
HETATM    8  N   UNL     1      62.669   8.030   3.568  1.00  0.00    -0.315 N 
HETATM    9  C   UNL     1      62.275   8.934   2.608  1.00  0.00     0.188 A 
HETATM   10  N   UNL     1      60.967   9.053   2.527  1.00  0.00    -0.360 N 
HETATM   11  C   UNL     1      60.477   8.147   3.423  1.00  0.00     0.106 A 
ATOM     12  HN  UNL     1      60.436   9.684   1.927  1.00  0.00     0.166 HD
HETATM   13  C   UNL     1      61.499   7.473   4.046  1.00  0.00     0.115 A 
ENDBRANCH   1   8
BRANCH   2  14
HETATM   14  N   UNL     1      64.127   9.564   5.639  1.00  0.00    -0.397 N 
HETATM   15  H   UNL     1      63.990   9.547   6.613  1.00  0.00     0.156 HD
HETATM   16  H   UNL     1      63.886  10.368   5.122  1.00  0.00     0.156 HD
ENDBRANCH   2  14
TORSDOF 2
ENDMDL
MODEL 6
REMARK VINA RESULT:      -4.0      4.111      6.447
REMARK  2 active torsions:
REMARK  status: ('A' for Active; 'I' for Inactive)
REMARK    1  A    between atoms: N_1  and  C_2 
REMARK    2  A    between atoms: C_3  and  N_12 
ROOT
HETATM    1  C   UNL     1      65.471   6.613   6.788  1.00  0.00     0.066 A 
HETATM    2  C   UNL     1      66.579   7.218   7.426  1.00  0.00     0.056 A 
HETATM    3  C   UNL     1      67.464   6.394   8.140  1.00  0.00     0.073 A 
HETATM    4  C   UNL     1      65.210   5.242   6.983  1.00  0.00     0.035 A 
HETATM    5  C   UNL     1      67.197   5.040   8.310  1.00  0.00     0.118 A 
HETATM    6  C   UNL     1      66.074   4.458   7.747  1.00  0.00     0.044 A 
HETATM    7  F   UNL     1      68.040   4.288   9.030  1.00  0.00    -0.206 F 
ENDROOT
BRANCH   1   8
HETATM    8  N   UNL     1      64.580   7.348   5.956  1.00  0.00    -0.315 N 
HETATM    9  C   UNL     1      64.869   8.033   4.798  1.00  0.00     0.188 A 
HETATM   10  N   UNL     1      63.829   8.680   4.316  1.00  0.00    -0.360 N 
HETATM   11  C   UNL     1      62.799   8.359   5.151  1.00  0.00     0.106 A 
ATOM     12  HN  UNL     1      63.800   9.288   3.498  1.00  0.00     0.166 HD
HETATM   13  C   UNL     1      63.221   7.507   6.144  1.00  0.00     0.115 A 
ENDBRANCH   1   8
BRANCH   2  14
HETATM   14  N   UNL     1      66.928   8.571   7.282  1.00  0.00    -0.397 N 
HETATM   15  H   UNL     1      66.229   9.247   7.127  1.00  0.00     0.156 HD
HETATM   16  H   UNL     1      67.872   8.845   7.338  1.00  0.00     0.156 HD
ENDBRANCH   2  14
TORSDOF 2
ENDMDL
MODEL 7
REMARK VINA RESULT:      -3.9      3.133      4.689
REMARK  2 active torsions:
REMARK  status: ('A' for Active; 'I' for Inactive)
REMARK    1  A    between atoms: N_1  and  C_2 
REMARK    2  A    between atoms: C_3  and  N_12 
ROOT
HETATM    1  C   UNL     1      62.642   8.309   3.418  1.00  0.00     0.066 A 
HETATM    2  C   UNL     1      62.901   9.378   4.305  1.00  0.00     0.056 A 
HETATM    3  C   UNL     1      64.098   9.357   5.039  1.00  0.00     0.073 A 
HETATM    4  C   UNL     1      63.511   7.199   3.381  1.00  0.00     0.035 A 
HETATM    5  C   UNL     1      64.951   8.260   4.979  1.00  0.00     0.118 A 
HETATM    6  C   UNL     1      64.665   7.178   4.165  1.00  0.00     0.044 A 
HETATM    7  F   UNL     1      66.066   8.251   5.721  1.00  0.00    -0.206 F 
ENDROOT
BRANCH   1   8
HETATM    8  N   UNL     1      61.509   8.294   2.556  1.00  0.00    -0.315 N 
HETATM    9  C   UNL     1      60.228   7.879   2.843  1.00  0.00     0.188 A 
HETATM   10  N   UNL     1      59.435   7.915   1.794  1.00  0.00    -0.360 N 
HETATM   11  C   UNL     1      60.202   8.435   0.791  1.00  0.00     0.106 A 
ATOM     12  HN  UNL     1      58.460   7.620   1.742  1.00  0.00     0.166 HD
HETATM   13  C   UNL     1      61.469   8.717   1.242  1.00  0.00     0.115 A 
ENDBRANCH   1   8
BRANCH   2  14
HETATM   14  N   UNL     1      62.102  10.530   4.404  1.00  0.00    -0.397 N 
HETATM   15  H   UNL     1      61.325  10.643   3.811  1.00  0.00     0.156 HD
HETATM   16  H   UNL     1      62.319  11.224   5.068  1.00  0.00     0.156 HD
ENDBRANCH   2  14
TORSDOF 2
ENDMDL
MODEL 8
REMARK VINA RESULT:      -3.9      3.629      4.901
REMARK  2 active torsions:
REMARK  status: ('A' for Active; 'I' for Inactive)
REMARK    1  A    between atoms: N_1  and  C_2 
REMARK    2  A    between atoms: C_3  and  N_12 
ROOT
HETATM    1  C   UNL     1      65.854   6.473   6.455  1.00  0.00     0.066 A 
HETATM    2  C   UNL     1      66.414   6.740   5.185  1.00  0.00     0.056 A 
HETATM    3  C   UNL     1      65.610   7.377   4.226  1.00  0.00     0.073 A 
HETATM    4  C   UNL     1      64.488   6.729   6.690  1.00  0.00     0.035 A 
HETATM    5  C   UNL     1      64.267   7.635   4.481  1.00  0.00     0.118 A 
HETATM    6  C   UNL     1      63.696   7.309   5.699  1.00  0.00     0.044 A 
HETATM    7  F   UNL     1      63.515   8.208   3.532  1.00  0.00    -0.206 F 
ENDROOT
BRANCH   1   8
HETATM    8  N   UNL     1      66.621   5.928   7.524  1.00  0.00    -0.315 N 
HETATM    9  C   UNL     1      67.233   6.598   8.559  1.00  0.00     0.188 A 
HETATM   10  N   UNL     1      67.938   5.802   9.334  1.00  0.00    -0.360 N 
HETATM   11  C   UNL     1      67.733   4.550   8.831  1.00  0.00     0.106 A 
ATOM     12  HN  UNL     1      68.512   6.064  10.135  1.00  0.00     0.166 HD
HETATM   13  C   UNL     1      66.893   4.592   7.744  1.00  0.00     0.115 A 
ENDBRANCH   1   8
BRANCH   2  14
HETATM   14  N   UNL     1      67.765   6.531   4.860  1.00  0.00    -0.397 N 
HETATM   15  H   UNL     1      68.437   7.214   5.085  1.00  0.00     0.156 HD
HETATM   16  H   UNL     1      68.040   5.701   4.408  1.00  0.00     0.156 HD
ENDBRANCH   2  14
TORSDOF 2
ENDMDL
MODEL 9
REMARK VINA RESULT:      -3.9      2.749      3.993
REMARK  2 active torsions:
REMARK  status: ('A' for Active; 'I' for Inactive)
REMARK    1  A    between atoms: N_1  and  C_2 
REMARK    2  A    between atoms: C_3  and  N_12 
ROOT
HETATM    1  C   UNL     1      65.459   6.522   5.394  1.00  0.00     0.066 A 
HETATM    2  C   UNL     1      65.528   7.900   5.701  1.00  0.00     0.056 A 
HETATM    3  C   UNL     1      64.629   8.768   5.059  1.00  0.00     0.073 A 
HETATM    4  C   UNL     1      64.594   6.070   4.377  1.00  0.00     0.035 A 
HETATM    5  C   UNL     1      63.773   8.302   4.068  1.00  0.00     0.118 A 
HETATM    6  C   UNL     1      63.753   6.963   3.714  1.00  0.00     0.044 A 
HETATM    7  F   UNL     1      62.954   9.161   3.447  1.00  0.00    -0.206 F 
ENDROOT
BRANCH   1   8
HETATM    8  N   UNL     1      66.255   5.554   6.069  1.00  0.00    -0.315 N 
HETATM    9  C   UNL     1      67.523   5.124   5.749  1.00  0.00     0.188 A 
HETATM   10  N   UNL     1      67.943   4.152   6.530  1.00  0.00    -0.360 N 
HETATM   11  C   UNL     1      66.941   3.976   7.441  1.00  0.00     0.106 A 
ATOM     12  HN  UNL     1      68.824   3.641   6.469  1.00  0.00     0.166 HD
HETATM   13  C   UNL     1      65.909   4.853   7.208  1.00  0.00     0.115 A 
ENDBRANCH   1   8
BRANCH   2  14
HETATM   14  N   UNL     1      66.347   8.444   6.704  1.00  0.00    -0.397 N 
HETATM   15  H   UNL     1      65.969   9.071   7.363  1.00  0.00     0.156 HD
HETATM   16  H   UNL     1      67.299   8.198   6.750  1.00  0.00     0.156 HD
ENDBRANCH   2  14
TORSDOF 2
ENDMDL
