MODEL 1
REMARK VINA RESULT:      -5.3      0.000      0.000
REMARK  1 active torsions:
REMARK  status: ('A' for Active; 'I' for Inactive)
REMARK    1  A    between atoms: C_6  and  C_7 
ROOT
HETATM    1  C   UNL     1      66.350   6.750   6.191  1.00  0.00     0.178 A 
HETATM    2  N   UNL     1      65.872   6.190   4.986  1.00  0.00    -0.326 N 
HETATM    3  N   UNL     1      65.652   7.954   6.384  1.00  0.00    -0.331 N 
HETATM    4  C   UNL     1      64.766   8.133   5.331  1.00  0.00     0.062 A 
HETATM    5  C   UNL     1      64.893   7.054   4.458  1.00  0.00     0.063 A 
HETATM    6  C   UNL     1      63.092   9.104   3.951  1.00  0.00     0.050 A 
HETATM    7  C   UNL     1      63.884   9.165   5.111  1.00  0.00     0.048 A 
HETATM    8  S   UNL     1      67.497   6.182   7.239  1.00  0.00    -0.040 SA
HETATM    9  C   UNL     1      64.133   6.963   3.312  1.00  0.00     0.033 A 
HETATM   10  C   UNL     1      63.226   8.002   3.060  1.00  0.00     0.018 A 
HETATM   11  C   UNL     1      66.254   4.948   4.355  1.00  0.00     0.159 C 
HETATM   12  H   UNL     1      65.771   8.570   7.143  1.00  0.00     0.168 HD
ENDROOT
BRANCH   6  13
HETATM   13  C   UNL     1      62.107  10.211   3.652  1.00  0.00     0.417 C 
HETATM   14  F   UNL     1      62.163  10.644   2.362  1.00  0.00    -0.166 F 
HETATM   15  F   UNL     1      60.816   9.834   3.862  1.00  0.00    -0.166 F 
HETATM   16  F   UNL     1      62.308  11.315   4.423  1.00  0.00    -0.166 F 
ENDBRANCH   6  13
TORSDOF 1
ENDMDL
MODEL 2
REMARK VINA RESULT:      -4.7      1.472      2.477
REMARK  1 active torsions:
REMARK  status: ('A' for Active; 'I' for Inactive)
REMARK    1  A    between atoms: C_6  and  C_7 
ROOT
HETATM    1  C   UNL     1      66.318   5.350   3.772  1.00  0.00     0.178 A 
HETATM    2  N   UNL     1      66.510   6.363   4.738  1.00  0.00    -0.326 N 
HETATM    3  N   UNL     1      65.140   5.670   3.078  1.00  0.00    -0.331 N 
HETATM    4  C   UNL     1      64.619   6.848   3.596  1.00  0.00     0.062 A 
HETATM    5  C   UNL     1      65.452   7.284   4.625  1.00  0.00     0.063 A 
HETATM    6  C   UNL     1      63.177   8.710   3.917  1.00  0.00     0.050 A 
HETATM    7  C   UNL     1      63.485   7.529   3.219  1.00  0.00     0.048 A 
HETATM    8  S   UNL     1      67.238   4.015   3.442  1.00  0.00    -0.040 SA
HETATM    9  C   UNL     1      65.179   8.436   5.329  1.00  0.00     0.033 A 
HETATM   10  C   UNL     1      64.028   9.152   4.969  1.00  0.00     0.018 A 
HETATM   11  C   UNL     1      67.585   6.506   5.693  1.00  0.00     0.159 C 
HETATM   12  H   UNL     1      64.749   5.145   2.342  1.00  0.00     0.168 HD
ENDROOT
BRANCH   6  13
HETATM   13  C   UNL     1      61.941   9.500   3.553  1.00  0.00     0.417 C 
HETATM   14  F   UNL     1      61.785  10.626   4.303  1.00  0.00    -0.166 F 
HETATM   15  F   UNL     1      61.950   9.915   2.256  1.00  0.00    -0.166 F 
HETATM   16  F   UNL     1      60.794   8.784   3.713  1.00  0.00    -0.166 F 
ENDBRANCH   6  13
TORSDOF 1
ENDMDL
MODEL 3
REMARK VINA RESULT:      -4.6      4.518      5.735
REMARK  1 active torsions:
REMARK  status: ('A' for Active; 'I' for Inactive)
REMARK    1  A    between atoms: C_6  and  C_7 
ROOT
HETATM    1  C   UNL     1      62.173   8.177   2.241  1.00  0.00     0.178 A 
HETATM    2  N   UNL     1      62.521   8.986   3.346  1.00  0.00    -0.326 N 
HETATM    3  N   UNL     1      63.096   7.119   2.206  1.00  0.00    -0.331 N 
HETATM    4  C   UNL     1      63.988   7.265   3.259  1.00  0.00     0.062 A 
HETATM    5  C   UNL     1      63.648   8.415   3.969  1.00  0.00     0.063 A 
HETATM    6  C   UNL     1      65.802   6.840   4.734  1.00  0.00     0.050 A 
HETATM    7  C   UNL     1      65.047   6.462   3.610  1.00  0.00     0.048 A 
HETATM    8  S   UNL     1      60.944   8.354   1.148  1.00  0.00    -0.040 SA
HETATM    9  C   UNL     1      64.367   8.815   5.074  1.00  0.00     0.033 A 
HETATM   10  C   UNL     1      65.455   8.017   5.455  1.00  0.00     0.018 A 
HETATM   11  C   UNL     1      61.874  10.185   3.825  1.00  0.00     0.159 C 
HETATM   12  H   UNL     1      63.106   6.391   1.542  1.00  0.00     0.168 HD
ENDROOT
BRANCH   6  13
HETATM   13  C   UNL     1      66.983   6.001   5.166  1.00  0.00     0.417 C 
HETATM   14  F   UNL     1      66.726   5.243   6.268  1.00  0.00    -0.166 F 
HETATM   15  F   UNL     1      67.387   5.130   4.201  1.00  0.00    -0.166 F 
HETATM   16  F   UNL     1      68.075   6.753   5.478  1.00  0.00    -0.166 F 
ENDBRANCH   6  13
TORSDOF 1
ENDMDL
MODEL 4
REMARK VINA RESULT:      -4.5      4.631      5.689
REMARK  1 active torsions:
REMARK  status: ('A' for Active; 'I' for Inactive)
REMARK    1  A    between atoms: C_6  and  C_7 
ROOT
HETATM    1  C   UNL     1      61.853   7.065   4.737  1.00  0.00     0.178 A 
HETATM    2  N   UNL     1      62.827   8.024   4.378  1.00  0.00    -0.326 N 
HETATM    3  N   UNL     1      62.416   6.278   5.755  1.00  0.00    -0.331 N 
HETATM    4  C   UNL     1      63.699   6.736   6.021  1.00  0.00     0.062 A 
HETATM    5  C   UNL     1      63.967   7.811   5.176  1.00  0.00     0.063 A 
HETATM    6  C   UNL     1      65.854   6.918   7.006  1.00  0.00     0.050 A 
HETATM    7  C   UNL     1      64.609   6.268   6.940  1.00  0.00     0.048 A 
HETATM    8  S   UNL     1      60.328   6.833   4.141  1.00  0.00    -0.040 SA
HETATM    9  C   UNL     1      65.177   8.469   5.214  1.00  0.00     0.033 A 
HETATM   10  C   UNL     1      66.127   8.013   6.140  1.00  0.00     0.018 A 
HETATM   11  C   UNL     1      62.735   9.076   3.394  1.00  0.00     0.159 C 
HETATM   12  H   UNL     1      61.971   5.524   6.208  1.00  0.00     0.168 HD
ENDROOT
BRANCH   6  13
HETATM   13  C   UNL     1      66.898   6.446   7.992  1.00  0.00     0.417 C 
HETATM   14  F   UNL     1      67.214   7.384   8.928  1.00  0.00    -0.166 F 
HETATM   15  F   UNL     1      66.502   5.345   8.687  1.00  0.00    -0.166 F 
HETATM   16  F   UNL     1      68.073   6.111   7.391  1.00  0.00    -0.166 F 
ENDBRANCH   6  13
TORSDOF 1
ENDMDL
MODEL 5
REMARK VINA RESULT:      -4.5      4.145      5.098
REMARK  1 active torsions:
REMARK  status: ('A' for Active; 'I' for Inactive)
REMARK    1  A    between atoms: C_6  and  C_7 
ROOT
HETATM    1  C   UNL     1      62.535   8.380   2.329  1.00  0.00     0.178 A 
HETATM    2  N   UNL     1      63.226   7.156   2.188  1.00  0.00    -0.326 N 
HETATM    3  N   UNL     1      63.028   8.992   3.493  1.00  0.00    -0.331 N 
HETATM    4  C   UNL     1      63.997   8.173   4.056  1.00  0.00     0.062 A 
HETATM    5  C   UNL     1      64.127   7.034   3.263  1.00  0.00     0.063 A 
HETATM    6  C   UNL     1      65.666   7.376   5.549  1.00  0.00     0.050 A 
HETATM    7  C   UNL     1      64.743   8.375   5.194  1.00  0.00     0.048 A 
HETATM    8  S   UNL     1      61.366   9.051   1.370  1.00  0.00    -0.040 SA
HETATM    9  C   UNL     1      65.021   6.036   3.582  1.00  0.00     0.033 A 
HETATM   10  C   UNL     1      65.795   6.212   4.739  1.00  0.00     0.018 A 
HETATM   11  C   UNL     1      63.101   6.166   1.145  1.00  0.00     0.159 C 
HETATM   12  H   UNL     1      62.734   9.862   3.851  1.00  0.00     0.168 HD
ENDROOT
BRANCH   6  13
HETATM   13  C   UNL     1      66.511   7.538   6.791  1.00  0.00     0.417 C 
HETATM   14  F   UNL     1      65.894   7.093   7.921  1.00  0.00    -0.166 F 
HETATM   15  F   UNL     1      67.687   6.855   6.716  1.00  0.00    -0.166 F 
HETATM   16  F   UNL     1      66.843   8.836   7.035  1.00  0.00    -0.166 F 
ENDBRANCH   6  13
TORSDOF 1
ENDMDL
MODEL 6
REMARK VINA RESULT:      -4.5      4.445      5.449
REMARK  1 active torsions:
REMARK  status: ('A' for Active; 'I' for Inactive)
REMARK    1  A    between atoms: C_6  and  C_7 
ROOT
HETATM    1  C   UNL     1      63.111   9.647   4.374  1.00  0.00     0.178 A 
HETATM    2  N   UNL     1      63.215   8.555   3.484  1.00  0.00    -0.326 N 
HETATM    3  N   UNL     1      64.016   9.406   5.421  1.00  0.00    -0.331 N 
HETATM    4  C   UNL     1      64.664   8.201   5.186  1.00  0.00     0.062 A 
HETATM    5  C   UNL     1      64.177   7.663   3.996  1.00  0.00     0.063 A 
HETATM    6  C   UNL     1      66.124   6.348   5.475  1.00  0.00     0.050 A 
HETATM    7  C   UNL     1      65.628   7.578   5.942  1.00  0.00     0.048 A 
HETATM    8  S   UNL     1      62.149  10.991   4.291  1.00  0.00    -0.040 SA
HETATM    9  C   UNL     1      64.640   6.460   3.509  1.00  0.00     0.033 A 
HETATM   10  C   UNL     1      65.623   5.799   4.261  1.00  0.00     0.018 A 
HETATM   11  C   UNL     1      62.510   8.333   2.244  1.00  0.00     0.159 C 
HETATM   12  H   UNL     1      64.167   9.996   6.195  1.00  0.00     0.168 HD
ENDROOT
BRANCH   6  13
HETATM   13  C   UNL     1      67.181   5.612   6.265  1.00  0.00     0.417 C 
HETATM   14  F   UNL     1      67.920   4.756   5.505  1.00  0.00    -0.166 F 
HETATM   15  F   UNL     1      68.075   6.453   6.854  1.00  0.00    -0.166 F 
HETATM   16  F   UNL     1      66.655   4.858   7.270  1.00  0.00    -0.166 F 
ENDBRANCH   6  13
TORSDOF 1
ENDMDL
MODEL 7
REMARK VINA RESULT:      -4.5      4.285      5.228
REMARK  1 active torsions:
REMARK  status: ('A' for Active; 'I' for Inactive)
REMARK    1  A    between atoms: C_6  and  C_7 
ROOT
HETATM    1  C   UNL     1      60.814   6.389   5.330  1.00  0.00     0.178 A 
HETATM    2  N   UNL     1      61.348   7.363   4.457  1.00  0.00    -0.326 N 
HETATM    3  N   UNL     1      61.833   6.054   6.236  1.00  0.00    -0.331 N 
HETATM    4  C   UNL     1      62.965   6.799   5.935  1.00  0.00     0.062 A 
HETATM    5  C   UNL     1      62.681   7.608   4.836  1.00  0.00     0.063 A 
HETATM    6  C   UNL     1      65.178   7.657   6.048  1.00  0.00     0.050 A 
HETATM    7  C   UNL     1      64.190   6.798   6.559  1.00  0.00     0.048 A 
HETATM    8  S   UNL     1      59.303   5.714   5.365  1.00  0.00    -0.040 SA
HETATM    9  C   UNL     1      63.626   8.461   4.309  1.00  0.00     0.033 A 
HETATM   10  C   UNL     1      64.887   8.481   4.924  1.00  0.00     0.018 A 
HETATM   11  C   UNL     1      60.698   8.044   3.361  1.00  0.00     0.159 C 
HETATM   12  H   UNL     1      61.757   5.397   6.967  1.00  0.00     0.168 HD
ENDROOT
BRANCH   6  13
HETATM   13  C   UNL     1      66.547   7.698   6.688  1.00  0.00     0.417 C 
HETATM   14  F   UNL     1      66.917   8.948   7.083  1.00  0.00    -0.166 F 
HETATM   15  F   UNL     1      66.627   6.917   7.801  1.00  0.00    -0.166 F 
HETATM   16  F   UNL     1      67.531   7.265   5.852  1.00  0.00    -0.166 F 
ENDBRANCH   6  13
TORSDOF 1
ENDMDL
MODEL 8
REMARK VINA RESULT:      -4.4      4.287      5.253
REMARK  1 active torsions:
REMARK  status: ('A' for Active; 'I' for Inactive)
REMARK    1  A    between atoms: C_6  and  C_7 
ROOT
HETATM    1  C   UNL     1      61.871   7.969   3.102  1.00  0.00     0.178 A 
HETATM    2  N   UNL     1      61.692   7.180   4.260  1.00  0.00    -0.326 N 
HETATM    3  N   UNL     1      63.183   8.468   3.149  1.00  0.00    -0.331 N 
HETATM    4  C   UNL     1      63.800   8.001   4.301  1.00  0.00     0.062 A 
HETATM    5  C   UNL     1      62.890   7.207   4.999  1.00  0.00     0.063 A 
HETATM    6  C   UNL     1      65.458   7.634   5.964  1.00  0.00     0.050 A 
HETATM    7  C   UNL     1      65.079   8.233   4.750  1.00  0.00     0.048 A 
HETATM    8  S   UNL     1      60.812   8.300   1.874  1.00  0.00    -0.040 SA
HETATM    9  C   UNL     1      63.229   6.607   6.191  1.00  0.00     0.033 A 
HETATM   10  C   UNL     1      64.527   6.827   6.676  1.00  0.00     0.018 A 
HETATM   11  C   UNL     1      60.526   6.433   4.670  1.00  0.00     0.159 C 
HETATM   12  H   UNL     1      63.598   9.054   2.474  1.00  0.00     0.168 HD
ENDROOT
BRANCH   6  13
HETATM   13  C   UNL     1      66.850   7.856   6.512  1.00  0.00     0.417 C 
HETATM   14  F   UNL     1      67.798   7.958   5.539  1.00  0.00    -0.166 F 
HETATM   15  F   UNL     1      66.946   8.997   7.247  1.00  0.00    -0.166 F 
HETATM   16  F   UNL     1      67.260   6.845   7.327  1.00  0.00    -0.166 F 
ENDBRANCH   6  13
TORSDOF 1
ENDMDL
MODEL 9
REMARK VINA RESULT:      -4.4      5.678      6.727
REMARK  1 active torsions:
REMARK  status: ('A' for Active; 'I' for Inactive)
REMARK    1  A    between atoms: C_6  and  C_7 
ROOT
HETATM    1  C   UNL     1      57.244   6.689   4.112  1.00  0.00     0.178 A 
HETATM    2  N   UNL     1      57.062   6.788   2.715  1.00  0.00    -0.326 N 
HETATM    3  N   UNL     1      58.534   7.170   4.389  1.00  0.00    -0.331 N 
HETATM    4  C   UNL     1      59.134   7.558   3.198  1.00  0.00     0.062 A 
HETATM    5  C   UNL     1      58.238   7.323   2.156  1.00  0.00     0.063 A 
HETATM    6  C   UNL     1      60.754   8.395   1.674  1.00  0.00     0.050 A 
HETATM    7  C   UNL     1      60.387   8.088   2.996  1.00  0.00     0.048 A 
HETATM    8  S   UNL     1      56.207   6.135   5.277  1.00  0.00    -0.040 SA
HETATM    9  C   UNL     1      58.566   7.613   0.850  1.00  0.00     0.033 A 
HETATM   10  C   UNL     1      59.838   8.152   0.611  1.00  0.00     0.018 A 
HETATM   11  C   UNL     1      55.900   6.440   1.930  1.00  0.00     0.159 C 
HETATM   12  H   UNL     1      58.946   7.225   5.282  1.00  0.00     0.168 HD
ENDROOT
BRANCH   6  13
HETATM   13  C   UNL     1      62.119   8.975   1.386  1.00  0.00     0.417 C 
HETATM   14  F   UNL     1      62.640   8.556   0.200  1.00  0.00    -0.166 F 
HETATM   15  F   UNL     1      62.108  10.335   1.328  1.00  0.00    -0.166 F 
HETATM   16  F   UNL     1      63.040   8.645   2.334  1.00  0.00    -0.166 F 
ENDBRANCH   6  13
TORSDOF 1
ENDMDL
