MODEL 1
REMARK VINA RESULT:      -5.0      0.000      0.000
REMARK  3 active torsions:
REMARK  status: ('A' for Active; 'I' for Inactive)
REMARK    1  A    between atoms: C_1  and  C_2 
REMARK    2  A    between atoms: C_3  and  N_11 
REMARK    3  A    between atoms: C_5  and  N_12 
ROOT
HETATM    1  C   UNL     1      62.471   9.070   2.668  1.00  0.00     0.050 A 
HETATM    2  C   UNL     1      62.901   9.402   5.037  1.00  0.00     0.053 A 
HETATM    3  C   UNL     1      62.507   9.904   3.794  1.00  0.00     0.047 A 
HETATM    4  C   UNL     1      63.403   8.079   5.162  1.00  0.00     0.054 A 
HETATM    5  C   UNL     1      62.917   7.749   2.798  1.00  0.00     0.018 A 
HETATM    6  C   UNL     1      63.374   7.262   4.029  1.00  0.00     0.032 A 
ENDROOT
BRANCH   1   7
HETATM    7  C   UNL     1      61.944   9.565   1.345  1.00  0.00     0.417 C 
HETATM    8  F   UNL     1      62.662   9.128   0.272  1.00  0.00    -0.166 F 
HETATM    9  F   UNL     1      61.943  10.925   1.261  1.00  0.00    -0.166 F 
HETATM   10  F   UNL     1      60.660   9.177   1.119  1.00  0.00    -0.166 F 
ENDBRANCH   1   7
BRANCH   2  11
HETATM   11  N   UNL     1      62.974  10.279   6.151  1.00  0.00    -0.397 N 
HETATM   12  H   UNL     1      63.827  10.399   6.628  1.00  0.00     0.156 HD
HETATM   13  H   UNL     1      62.172  10.767   6.446  1.00  0.00     0.156 HD
ENDBRANCH   2  11
BRANCH   4  14
HETATM   14  N   UNL     1      63.759   7.643   6.446  1.00  0.00    -0.392 N 
HETATM   15  C   UNL     1      64.916   6.815   6.709  1.00  0.00     0.146 C 
HETATM   16  H   UNL     1      63.195   7.914   7.205  1.00  0.00     0.159 HD
ENDBRANCH   4  14
TORSDOF 3
ENDMDL
MODEL 2
REMARK VINA RESULT:      -4.6      1.096      2.258
REMARK  3 active torsions:
REMARK  status: ('A' for Active; 'I' for Inactive)
REMARK    1  A    between atoms: C_1  and  C_2 
REMARK    2  A    between atoms: C_3  and  N_11 
REMARK    3  A    between atoms: C_5  and  N_12 
ROOT
HETATM    1  C   UNL     1      62.554   9.068   2.817  1.00  0.00     0.050 A 
HETATM    2  C   UNL     1      63.940   7.411   3.932  1.00  0.00     0.053 A 
HETATM    3  C   UNL     1      63.186   7.818   2.827  1.00  0.00     0.047 A 
HETATM    4  C   UNL     1      63.969   8.191   5.119  1.00  0.00     0.054 A 
HETATM    5  C   UNL     1      62.624   9.864   3.967  1.00  0.00     0.018 A 
HETATM    6  C   UNL     1      63.325   9.430   5.100  1.00  0.00     0.032 A 
ENDROOT
BRANCH   1   7
HETATM    7  C   UNL     1      61.830   9.569   1.593  1.00  0.00     0.417 C 
HETATM    8  F   UNL     1      60.615   8.984   1.397  1.00  0.00    -0.166 F 
HETATM    9  F   UNL     1      62.535   9.352   0.447  1.00  0.00    -0.166 F 
HETATM   10  F   UNL     1      61.598  10.908   1.639  1.00  0.00    -0.166 F 
ENDBRANCH   1   7
BRANCH   2  11
HETATM   11  N   UNL     1      64.530   6.120   3.935  1.00  0.00    -0.397 N 
HETATM   12  H   UNL     1      65.424   5.987   3.545  1.00  0.00     0.156 HD
HETATM   13  H   UNL     1      64.045   5.358   4.326  1.00  0.00     0.156 HD
ENDBRANCH   2  11
BRANCH   4  14
HETATM   14  N   UNL     1      64.764   7.726   6.176  1.00  0.00    -0.392 N 
HETATM   15  C   UNL     1      66.171   8.040   6.306  1.00  0.00     0.146 C 
HETATM   16  H   UNL     1      64.345   7.160   6.863  1.00  0.00     0.159 HD
ENDBRANCH   4  14
TORSDOF 3
ENDMDL
MODEL 3
REMARK VINA RESULT:      -4.6      3.337      4.581
REMARK  3 active torsions:
REMARK  status: ('A' for Active; 'I' for Inactive)
REMARK    1  A    between atoms: C_1  and  C_2 
REMARK    2  A    between atoms: C_3  and  N_11 
REMARK    3  A    between atoms: C_5  and  N_12 
ROOT
HETATM    1  C   UNL     1      64.323   7.866   4.401  1.00  0.00     0.050 A 
HETATM    2  C   UNL     1      63.282  10.017   4.844  1.00  0.00     0.053 A 
HETATM    3  C   UNL     1      64.161   8.995   5.214  1.00  0.00     0.047 A 
HETATM    4  C   UNL     1      62.435   9.874   3.713  1.00  0.00     0.054 A 
HETATM    5  C   UNL     1      63.526   7.744   3.256  1.00  0.00     0.018 A 
HETATM    6  C   UNL     1      62.597   8.737   2.918  1.00  0.00     0.032 A 
ENDROOT
BRANCH   1   7
HETATM    7  C   UNL     1      65.345   6.807   4.727  1.00  0.00     0.417 C 
HETATM    8  F   UNL     1      64.859   5.536   4.657  1.00  0.00    -0.166 F 
HETATM    9  F   UNL     1      65.850   6.941   5.986  1.00  0.00    -0.166 F 
HETATM   10  F   UNL     1      66.417   6.845   3.891  1.00  0.00    -0.166 F 
ENDBRANCH   1   7
BRANCH   2  11
HETATM   11  N   UNL     1      63.102  11.127   5.710  1.00  0.00    -0.397 N 
HETATM   12  H   UNL     1      63.778  11.331   6.396  1.00  0.00     0.156 HD
HETATM   13  H   UNL     1      62.300  11.693   5.625  1.00  0.00     0.156 HD
ENDBRANCH   2  11
BRANCH   4  14
HETATM   14  N   UNL     1      61.596  10.951   3.396  1.00  0.00    -0.392 N 
HETATM   15  C   UNL     1      61.729  11.728   2.181  1.00  0.00     0.146 C 
HETATM   16  H   UNL     1      60.881  11.190   4.028  1.00  0.00     0.159 HD
ENDBRANCH   4  14
TORSDOF 3
ENDMDL
MODEL 4
REMARK VINA RESULT:      -4.5      2.088      2.728
REMARK  3 active torsions:
REMARK  status: ('A' for Active; 'I' for Inactive)
REMARK    1  A    between atoms: C_1  and  C_2 
REMARK    2  A    between atoms: C_3  and  N_11 
REMARK    3  A    between atoms: C_5  and  N_12 
ROOT
HETATM    1  C   UNL     1      63.149   9.065   3.942  1.00  0.00     0.050 A 
HETATM    2  C   UNL     1      64.899   8.096   5.323  1.00  0.00     0.053 A 
HETATM    3  C   UNL     1      64.032   9.152   5.026  1.00  0.00     0.047 A 
HETATM    4  C   UNL     1      65.004   6.976   4.457  1.00  0.00     0.054 A 
HETATM    5  C   UNL     1      63.213   7.937   3.114  1.00  0.00     0.018 A 
HETATM    6  C   UNL     1      64.127   6.907   3.372  1.00  0.00     0.032 A 
ENDROOT
BRANCH   1   7
HETATM    7  C   UNL     1      62.131  10.144   3.673  1.00  0.00     0.417 C 
HETATM    8  F   UNL     1      62.269  11.238   4.474  1.00  0.00    -0.166 F 
HETATM    9  F   UNL     1      60.852   9.709   3.856  1.00  0.00    -0.166 F 
HETATM   10  F   UNL     1      62.188  10.605   2.395  1.00  0.00    -0.166 F 
ENDBRANCH   1   7
BRANCH   2  11
HETATM   11  N   UNL     1      65.816   8.231   6.398  1.00  0.00    -0.397 N 
HETATM   12  H   UNL     1      66.219   9.107   6.594  1.00  0.00     0.156 HD
HETATM   13  H   UNL     1      66.050   7.447   6.946  1.00  0.00     0.156 HD
ENDBRANCH   2  11
BRANCH   4  14
HETATM   14  N   UNL     1      65.882   5.950   4.834  1.00  0.00    -0.392 N 
HETATM   15  C   UNL     1      67.045   5.577   4.058  1.00  0.00     0.146 C 
HETATM   16  H   UNL     1      65.699   5.460   5.668  1.00  0.00     0.159 HD
ENDBRANCH   4  14
TORSDOF 3
ENDMDL
MODEL 5
REMARK VINA RESULT:      -4.4      3.806      5.113
REMARK  3 active torsions:
REMARK  status: ('A' for Active; 'I' for Inactive)
REMARK    1  A    between atoms: C_1  and  C_2 
REMARK    2  A    between atoms: C_3  and  N_11 
REMARK    3  A    between atoms: C_5  and  N_12 
ROOT
HETATM    1  C   UNL     1      63.832   8.181   4.905  1.00  0.00     0.050 A 
HETATM    2  C   UNL     1      62.685   8.594   2.803  1.00  0.00     0.053 A 
HETATM    3  C   UNL     1      63.527   7.804   3.591  1.00  0.00     0.047 A 
HETATM    4  C   UNL     1      62.233   9.858   3.264  1.00  0.00     0.054 A 
HETATM    5  C   UNL     1      63.346   9.404   5.382  1.00  0.00     0.018 A 
HETATM    6  C   UNL     1      62.555  10.229   4.571  1.00  0.00     0.032 A 
ENDROOT
BRANCH   1   7
HETATM    7  C   UNL     1      64.648   7.288   5.806  1.00  0.00     0.417 C 
HETATM    8  F   UNL     1      63.964   6.837   6.895  1.00  0.00    -0.166 F 
HETATM    9  F   UNL     1      65.754   7.915   6.297  1.00  0.00    -0.166 F 
HETATM   10  F   UNL     1      65.104   6.179   5.164  1.00  0.00    -0.166 F 
ENDBRANCH   1   7
BRANCH   2  11
HETATM   11  N   UNL     1      62.430   8.213   1.459  1.00  0.00    -0.397 N 
HETATM   12  H   UNL     1      61.777   7.503   1.265  1.00  0.00     0.156 HD
HETATM   13  H   UNL     1      62.908   8.658   0.723  1.00  0.00     0.156 HD
ENDBRANCH   2  11
BRANCH   4  14
HETATM   14  N   UNL     1      61.375  10.582   2.423  1.00  0.00    -0.392 N 
HETATM   15  C   UNL     1      61.671  11.916   1.947  1.00  0.00     0.146 C 
HETATM   16  H   UNL     1      60.531  10.161   2.141  1.00  0.00     0.159 HD
ENDBRANCH   4  14
TORSDOF 3
ENDMDL
MODEL 6
REMARK VINA RESULT:      -4.2      2.681      3.597
REMARK  3 active torsions:
REMARK  status: ('A' for Active; 'I' for Inactive)
REMARK    1  A    between atoms: C_1  and  C_2 
REMARK    2  A    between atoms: C_3  and  N_11 
REMARK    3  A    between atoms: C_5  and  N_12 
ROOT
HETATM    1  C   UNL     1      64.064   8.063   5.210  1.00  0.00     0.050 A 
HETATM    2  C   UNL     1      66.322   7.769   6.060  1.00  0.00     0.053 A 
HETATM    3  C   UNL     1      65.427   8.387   5.182  1.00  0.00     0.047 A 
HETATM    4  C   UNL     1      65.899   6.705   6.901  1.00  0.00     0.054 A 
HETATM    5  C   UNL     1      63.633   7.050   6.075  1.00  0.00     0.018 A 
HETATM    6  C   UNL     1      64.540   6.383   6.910  1.00  0.00     0.032 A 
ENDROOT
BRANCH   1   7
HETATM    7  C   UNL     1      63.067   8.797   4.349  1.00  0.00     0.417 C 
HETATM    8  F   UNL     1      63.310   8.685   3.013  1.00  0.00    -0.166 F 
HETATM    9  F   UNL     1      63.041  10.135   4.610  1.00  0.00    -0.166 F 
HETATM   10  F   UNL     1      61.794   8.356   4.537  1.00  0.00    -0.166 F 
ENDBRANCH   1   7
BRANCH   2  11
HETATM   11  N   UNL     1      67.704   8.081   5.978  1.00  0.00    -0.397 N 
HETATM   12  H   UNL     1      68.000   8.879   5.483  1.00  0.00     0.156 HD
HETATM   13  H   UNL     1      68.367   7.499   6.414  1.00  0.00     0.156 HD
ENDBRANCH   2  11
BRANCH   4  14
HETATM   14  N   UNL     1      66.852   6.151   7.767  1.00  0.00    -0.392 N 
HETATM   15  C   UNL     1      66.944   6.497   9.169  1.00  0.00     0.146 C 
HETATM   16  H   UNL     1      67.488   5.493   7.404  1.00  0.00     0.159 HD
ENDBRANCH   4  14
TORSDOF 3
ENDMDL
MODEL 7
REMARK VINA RESULT:      -4.2      1.679      1.829
REMARK  3 active torsions:
REMARK  status: ('A' for Active; 'I' for Inactive)
REMARK    1  A    between atoms: C_1  and  C_2 
REMARK    2  A    between atoms: C_3  and  N_11 
REMARK    3  A    between atoms: C_5  and  N_12 
ROOT
HETATM    1  C   UNL     1      61.823   8.669   2.683  1.00  0.00     0.050 A 
HETATM    2  C   UNL     1      62.806   8.244   4.865  1.00  0.00     0.053 A 
HETATM    3  C   UNL     1      62.815   8.918   3.640  1.00  0.00     0.047 A 
HETATM    4  C   UNL     1      61.879   7.196   5.112  1.00  0.00     0.054 A 
HETATM    5  C   UNL     1      60.874   7.672   2.944  1.00  0.00     0.018 A 
HETATM    6  C   UNL     1      60.903   6.949   4.144  1.00  0.00     0.032 A 
ENDROOT
BRANCH   1   7
HETATM    7  C   UNL     1      61.751   9.465   1.404  1.00  0.00     0.417 C 
HETATM    8  F   UNL     1      62.769   9.200   0.537  1.00  0.00    -0.166 F 
HETATM    9  F   UNL     1      61.794  10.809   1.626  1.00  0.00    -0.166 F 
HETATM   10  F   UNL     1      60.601   9.237   0.715  1.00  0.00    -0.166 F 
ENDBRANCH   1   7
BRANCH   2  11
HETATM   11  N   UNL     1      63.850   8.481   5.797  1.00  0.00    -0.397 N 
HETATM   12  H   UNL     1      64.171   9.398   5.954  1.00  0.00     0.156 HD
HETATM   13  H   UNL     1      64.253   7.728   6.286  1.00  0.00     0.156 HD
ENDBRANCH   2  11
BRANCH   4  14
HETATM   14  N   UNL     1      61.921   6.582   6.371  1.00  0.00    -0.392 N 
HETATM   15  C   UNL     1      60.825   5.807   6.912  1.00  0.00     0.146 C 
HETATM   16  H   UNL     1      62.736   6.682   6.914  1.00  0.00     0.159 HD
ENDBRANCH   4  14
TORSDOF 3
ENDMDL
MODEL 8
REMARK VINA RESULT:      -4.0      2.423      3.244
REMARK  3 active torsions:
REMARK  status: ('A' for Active; 'I' for Inactive)
REMARK    1  A    between atoms: C_1  and  C_2 
REMARK    2  A    between atoms: C_3  and  N_11 
REMARK    3  A    between atoms: C_5  and  N_12 
ROOT
HETATM    1  C   UNL     1      63.240   8.833   3.935  1.00  0.00     0.050 A 
HETATM    2  C   UNL     1      64.421   6.804   3.308  1.00  0.00     0.053 A 
HETATM    3  C   UNL     1      63.346   7.682   3.143  1.00  0.00     0.047 A 
HETATM    4  C   UNL     1      65.351   6.982   4.366  1.00  0.00     0.054 A 
HETATM    5  C   UNL     1      64.185   9.040   4.948  1.00  0.00     0.018 A 
HETATM    6  C   UNL     1      65.226   8.127   5.157  1.00  0.00     0.032 A 
ENDROOT
BRANCH   1   7
HETATM    7  C   UNL     1      62.150   9.848   3.698  1.00  0.00     0.417 C 
HETATM    8  F   UNL     1      60.892   9.334   3.801  1.00  0.00    -0.166 F 
HETATM    9  F   UNL     1      62.221  10.407   2.457  1.00  0.00    -0.166 F 
HETATM   10  F   UNL     1      62.205  10.884   4.577  1.00  0.00    -0.166 F 
ENDBRANCH   1   7
BRANCH   2  11
HETATM   11  N   UNL     1      64.479   5.621   2.525  1.00  0.00    -0.397 N 
HETATM   12  H   UNL     1      64.188   5.639   1.585  1.00  0.00     0.156 HD
HETATM   13  H   UNL     1      64.809   4.783   2.923  1.00  0.00     0.156 HD
ENDBRANCH   2  11
BRANCH   4  14
HETATM   14  N   UNL     1      66.413   6.070   4.452  1.00  0.00    -0.392 N 
HETATM   15  C   UNL     1      66.834   5.459   5.695  1.00  0.00     0.146 C 
HETATM   16  H   UNL     1      66.894   5.833   3.627  1.00  0.00     0.159 HD
ENDBRANCH   4  14
TORSDOF 3
ENDMDL
MODEL 9
REMARK VINA RESULT:      -3.9      2.148      2.913
REMARK  3 active torsions:
REMARK  status: ('A' for Active; 'I' for Inactive)
REMARK    1  A    between atoms: C_1  and  C_2 
REMARK    2  A    between atoms: C_3  and  N_11 
REMARK    3  A    between atoms: C_5  and  N_12 
ROOT
HETATM    1  C   UNL     1      62.976   8.741   4.630  1.00  0.00     0.050 A 
HETATM    2  C   UNL     1      63.036   6.632   5.836  1.00  0.00     0.053 A 
HETATM    3  C   UNL     1      62.320   7.620   5.155  1.00  0.00     0.047 A 
HETATM    4  C   UNL     1      64.415   6.805   6.129  1.00  0.00     0.054 A 
HETATM    5  C   UNL     1      64.347   8.891   4.872  1.00  0.00     0.018 A 
HETATM    6  C   UNL     1      65.055   7.933   5.610  1.00  0.00     0.032 A 
ENDROOT
BRANCH   1   7
HETATM    7  C   UNL     1      62.239   9.761   3.799  1.00  0.00     0.417 C 
HETATM    8  F   UNL     1      62.443  11.047   4.202  1.00  0.00    -0.166 F 
HETATM    9  F   UNL     1      60.889   9.575   3.825  1.00  0.00    -0.166 F 
HETATM   10  F   UNL     1      62.595   9.718   2.487  1.00  0.00    -0.166 F 
ENDBRANCH   1   7
BRANCH   2  11
HETATM   11  N   UNL     1      62.340   5.531   6.399  1.00  0.00    -0.397 N 
HETATM   12  H   UNL     1      61.360   5.479   6.326  1.00  0.00     0.156 HD
HETATM   13  H   UNL     1      62.837   4.820   6.864  1.00  0.00     0.156 HD
ENDBRANCH   2  11
BRANCH   4  14
HETATM   14  N   UNL     1      65.068   5.760   6.797  1.00  0.00    -0.392 N 
HETATM   15  C   UNL     1      66.406   5.320   6.464  1.00  0.00     0.146 C 
HETATM   16  H   UNL     1      64.594   5.304   7.530  1.00  0.00     0.159 HD
ENDBRANCH   4  14
TORSDOF 3
ENDMDL
