MODEL 1
REMARK VINA RESULT:      -5.0      0.000      0.000
REMARK  1 active torsions:
REMARK  status: ('A' for Active; 'I' for Inactive)
REMARK    1  A    between atoms: C_1  and  C_2 
ROOT
HETATM    1  C   UNL     1      62.985   8.884   4.943  1.00  0.00     0.046 A 
HETATM    2  C   UNL     1      62.740   8.499   3.609  1.00  0.00    -0.043 A 
HETATM    3  C   UNL     1      62.799  10.226   5.327  1.00  0.00     0.020 A 
HETATM    4  C   UNL     1      62.281   9.478   2.702  1.00  0.00     0.031 A 
HETATM    5  C   UNL     1      62.093  10.801   3.100  1.00  0.00     0.034 A 
HETATM    6  C   UNL     1      62.352  11.180   4.413  1.00  0.00     0.025 A 
HETATM    7 CL   UNL     1      61.546  11.968   1.961  1.00  0.00    -0.084 Cl
HETATM    8  C   UNL     1      62.948   7.116   3.057  1.00  0.00     0.049 C 
ENDROOT
BRANCH   1   9
HETATM    9  C   UNL     1      63.469   7.983   6.019  1.00  0.00     0.209 C 
HETATM   10  O   UNL     1      64.632   7.694   6.224  1.00  0.00    -0.644 OA
HETATM   11  O   UNL     1      62.497   7.582   6.853  1.00  0.00    -0.644 OA
ENDBRANCH   1   9
TORSDOF 1
ENDMDL
MODEL 2
REMARK VINA RESULT:      -5.0      2.542      3.576
REMARK  1 active torsions:
REMARK  status: ('A' for Active; 'I' for Inactive)
REMARK    1  A    between atoms: C_1  and  C_2 
ROOT
HETATM    1  C   UNL     1      62.405   9.960   3.578  1.00  0.00     0.046 A 
HETATM    2  C   UNL     1      62.050  10.391   2.284  1.00  0.00    -0.043 A 
HETATM    3  C   UNL     1      62.680   8.598   3.810  1.00  0.00     0.020 A 
HETATM    4  C   UNL     1      62.013   9.436   1.245  1.00  0.00     0.031 A 
HETATM    5  C   UNL     1      62.296   8.093   1.489  1.00  0.00     0.034 A 
HETATM    6  C   UNL     1      62.628   7.668   2.771  1.00  0.00     0.025 A 
HETATM    7 CL   UNL     1      62.224   6.955   0.200  1.00  0.00    -0.084 Cl
HETATM    8  C   UNL     1      61.685  11.801   1.913  1.00  0.00     0.049 C 
ENDROOT
BRANCH   1   9
HETATM    9  C   UNL     1      62.492  10.832   4.777  1.00  0.00     0.209 C 
HETATM   10  O   UNL     1      62.030  11.953   4.866  1.00  0.00    -0.644 OA
HETATM   11  O   UNL     1      63.045  10.222   5.837  1.00  0.00    -0.644 OA
ENDBRANCH   1   9
TORSDOF 1
ENDMDL
MODEL 3
REMARK VINA RESULT:      -4.8      1.443      2.605
REMARK  1 active torsions:
REMARK  status: ('A' for Active; 'I' for Inactive)
REMARK    1  A    between atoms: C_1  and  C_2 
ROOT
HETATM    1  C   UNL     1      63.786   8.605   4.534  1.00  0.00     0.046 A 
HETATM    2  C   UNL     1      62.940   9.718   4.355  1.00  0.00    -0.043 A 
HETATM    3  C   UNL     1      63.782   7.564   3.585  1.00  0.00     0.020 A 
HETATM    4  C   UNL     1      62.131   9.766   3.199  1.00  0.00     0.031 A 
HETATM    5  C   UNL     1      62.145   8.732   2.264  1.00  0.00     0.034 A 
HETATM    6  C   UNL     1      62.968   7.627   2.453  1.00  0.00     0.025 A 
HETATM    7 CL   UNL     1      61.133   8.820   0.875  1.00  0.00    -0.084 Cl
HETATM    8  C   UNL     1      62.810  10.867   5.314  1.00  0.00     0.049 C 
ENDROOT
BRANCH   1   9
HETATM    9  C   UNL     1      64.697   8.399   5.689  1.00  0.00     0.209 C 
HETATM   10  O   UNL     1      65.713   9.031   5.904  1.00  0.00    -0.644 OA
HETATM   11  O   UNL     1      64.237   7.500   6.573  1.00  0.00    -0.644 OA
ENDBRANCH   1   9
TORSDOF 1
ENDMDL
MODEL 4
REMARK VINA RESULT:      -4.7      2.601      3.302
REMARK  1 active torsions:
REMARK  status: ('A' for Active; 'I' for Inactive)
REMARK    1  A    between atoms: C_1  and  C_2 
ROOT
HETATM    1  C   UNL     1      62.528   9.891   3.745  1.00  0.00     0.046 A 
HETATM    2  C   UNL     1      63.120   8.616   3.846  1.00  0.00    -0.043 A 
HETATM    3  C   UNL     1      61.917  10.282   2.537  1.00  0.00     0.020 A 
HETATM    4  C   UNL     1      63.051   7.753   2.731  1.00  0.00     0.031 A 
HETATM    5  C   UNL     1      62.435   8.152   1.546  1.00  0.00     0.034 A 
HETATM    6  C   UNL     1      61.867   9.418   1.444  1.00  0.00     0.025 A 
HETATM    7 CL   UNL     1      62.384   7.079   0.203  1.00  0.00    -0.084 Cl
HETATM    8  C   UNL     1      63.847   8.095   5.054  1.00  0.00     0.049 C 
ENDROOT
BRANCH   1   9
HETATM    9  C   UNL     1      62.511  10.915   4.819  1.00  0.00     0.209 C 
HETATM   10  O   UNL     1      62.983  10.776   5.931  1.00  0.00    -0.644 OA
HETATM   11  O   UNL     1      62.014  12.096   4.419  1.00  0.00    -0.644 OA
ENDBRANCH   1   9
TORSDOF 1
ENDMDL
MODEL 5
REMARK VINA RESULT:      -4.5      3.368      4.081
REMARK  1 active torsions:
REMARK  status: ('A' for Active; 'I' for Inactive)
REMARK    1  A    between atoms: C_1  and  C_2 
ROOT
HETATM    1  C   UNL     1      62.375   9.932   3.391  1.00  0.00     0.046 A 
HETATM    2  C   UNL     1      62.340   8.932   2.398  1.00  0.00    -0.043 A 
HETATM    3  C   UNL     1      62.746   9.596   4.708  1.00  0.00     0.020 A 
HETATM    4  C   UNL     1      62.714   7.618   2.756  1.00  0.00     0.031 A 
HETATM    5  C   UNL     1      63.087   7.304   4.062  1.00  0.00     0.034 A 
HETATM    6  C   UNL     1      63.103   8.290   5.043  1.00  0.00     0.025 A 
HETATM    7 CL   UNL     1      63.522   5.688   4.463  1.00  0.00    -0.084 Cl
HETATM    8  C   UNL     1      61.915   9.144   0.973  1.00  0.00     0.049 C 
ENDROOT
BRANCH   1   9
HETATM    9  C   UNL     1      62.014  11.357   3.183  1.00  0.00     0.209 C 
HETATM   10  O   UNL     1      61.834  11.886   2.103  1.00  0.00    -0.644 OA
HETATM   11  O   UNL     1      61.784  12.019   4.328  1.00  0.00    -0.644 OA
ENDBRANCH   1   9
TORSDOF 1
ENDMDL
MODEL 6
REMARK VINA RESULT:      -4.2      1.770      2.130
REMARK  1 active torsions:
REMARK  status: ('A' for Active; 'I' for Inactive)
REMARK    1  A    between atoms: C_1  and  C_2 
ROOT
HETATM    1  C   UNL     1      62.683   8.081   3.016  1.00  0.00     0.046 A 
HETATM    2  C   UNL     1      62.352   8.391   1.682  1.00  0.00    -0.043 A 
HETATM    3  C   UNL     1      62.653   9.092   3.996  1.00  0.00     0.020 A 
HETATM    4  C   UNL     1      61.967   9.715   1.376  1.00  0.00     0.031 A 
HETATM    5  C   UNL     1      61.934  10.703   2.360  1.00  0.00     0.034 A 
HETATM    6  C   UNL     1      62.279  10.396   3.672  1.00  0.00     0.025 A 
HETATM    7 CL   UNL     1      61.475  12.308   1.946  1.00  0.00    -0.084 Cl
HETATM    8  C   UNL     1      62.393   7.422   0.533  1.00  0.00     0.049 C 
ENDROOT
BRANCH   1   9
HETATM    9  C   UNL     1      63.106   6.744   3.504  1.00  0.00     0.209 C 
HETATM   10  O   UNL     1      64.258   6.375   3.633  1.00  0.00    -0.644 OA
HETATM   11  O   UNL     1      62.082   5.980   3.915  1.00  0.00    -0.644 OA
ENDBRANCH   1   9
TORSDOF 1
ENDMDL
MODEL 7
REMARK VINA RESULT:      -4.1      2.286      3.396
REMARK  1 active torsions:
REMARK  status: ('A' for Active; 'I' for Inactive)
REMARK    1  A    between atoms: C_1  and  C_2 
ROOT
HETATM    1  C   UNL     1      63.757   8.045   4.124  1.00  0.00     0.046 A 
HETATM    2  C   UNL     1      62.859   8.661   3.229  1.00  0.00    -0.043 A 
HETATM    3  C   UNL     1      64.318   6.794   3.798  1.00  0.00     0.020 A 
HETATM    4  C   UNL     1      62.575   8.011   2.009  1.00  0.00     0.031 A 
HETATM    5  C   UNL     1      63.146   6.778   1.698  1.00  0.00     0.034 A 
HETATM    6  C   UNL     1      64.018   6.164   2.591  1.00  0.00     0.025 A 
HETATM    7 CL   UNL     1      62.763   6.009   0.207  1.00  0.00    -0.084 Cl
HETATM    8  C   UNL     1      62.153   9.965   3.477  1.00  0.00     0.049 C 
ENDROOT
BRANCH   1   9
HETATM    9  C   UNL     1      64.162   8.591   5.443  1.00  0.00     0.209 C 
HETATM   10  O   UNL     1      65.022   9.433   5.622  1.00  0.00    -0.644 OA
HETATM   11  O   UNL     1      63.401   8.150   6.457  1.00  0.00    -0.644 OA
ENDBRANCH   1   9
TORSDOF 1
ENDMDL
MODEL 8
REMARK VINA RESULT:      -4.0      2.340      2.865
REMARK  1 active torsions:
REMARK  status: ('A' for Active; 'I' for Inactive)
REMARK    1  A    between atoms: C_1  and  C_2 
ROOT
HETATM    1  C   UNL     1      63.251   8.556   4.681  1.00  0.00     0.046 A 
HETATM    2  C   UNL     1      62.549   7.431   5.159  1.00  0.00    -0.043 A 
HETATM    3  C   UNL     1      62.722   9.309   3.615  1.00  0.00     0.020 A 
HETATM    4  C   UNL     1      61.307   7.113   4.566  1.00  0.00     0.031 A 
HETATM    5  C   UNL     1      60.792   7.874   3.517  1.00  0.00     0.034 A 
HETATM    6  C   UNL     1      61.497   8.973   3.036  1.00  0.00     0.025 A 
HETATM    7 CL   UNL     1      59.284   7.447   2.809  1.00  0.00    -0.084 Cl
HETATM    8  C   UNL     1      63.025   6.516   6.251  1.00  0.00     0.049 C 
ENDROOT
BRANCH   1   9
HETATM    9  C   UNL     1      64.564   9.026   5.192  1.00  0.00     0.209 C 
HETATM   10  O   UNL     1      65.638   8.513   4.946  1.00  0.00    -0.644 OA
HETATM   11  O   UNL     1      64.483  10.173   5.884  1.00  0.00    -0.644 OA
ENDBRANCH   1   9
TORSDOF 1
ENDMDL
MODEL 9
REMARK VINA RESULT:      -3.8      3.533      4.361
REMARK  1 active torsions:
REMARK  status: ('A' for Active; 'I' for Inactive)
REMARK    1  A    between atoms: C_1  and  C_2 
ROOT
HETATM    1  C   UNL     1      61.872   9.126   3.800  1.00  0.00     0.046 A 
HETATM    2  C   UNL     1      62.860   8.486   4.575  1.00  0.00    -0.043 A 
HETATM    3  C   UNL     1      60.713   8.418   3.425  1.00  0.00     0.020 A 
HETATM    4  C   UNL     1      62.637   7.153   4.981  1.00  0.00     0.031 A 
HETATM    5  C   UNL     1      61.479   6.469   4.610  1.00  0.00     0.034 A 
HETATM    6  C   UNL     1      60.514   7.098   3.830  1.00  0.00     0.025 A 
HETATM    7 CL   UNL     1      61.250   4.840   5.111  1.00  0.00    -0.084 Cl
HETATM    8  C   UNL     1      64.162   9.108   4.998  1.00  0.00     0.049 C 
ENDROOT
BRANCH   1   9
HETATM    9  C   UNL     1      61.950  10.519   3.292  1.00  0.00     0.209 C 
HETATM   10  O   UNL     1      62.019  10.837   2.121  1.00  0.00    -0.644 OA
HETATM   11  O   UNL     1      61.821  11.443   4.257  1.00  0.00    -0.644 OA
ENDBRANCH   1   9
TORSDOF 1
ENDMDL
