MODEL 1
REMARK VINA RESULT:      -5.3      0.000      0.000
REMARK  1 active torsions:
REMARK  status: ('A' for Active; 'I' for Inactive)
REMARK    1  A    between atoms: C_1  and  C_2 
ROOT
HETATM    1  C   UNL     1      62.934   8.792   4.737  1.00  0.00     0.042 A 
HETATM    2  C   UNL     1      62.267   9.447   2.503  1.00  0.00     0.041 A 
HETATM    3  C   UNL     1      62.706   8.466   3.398  1.00  0.00     0.042 A 
HETATM    4  C   UNL     1      62.059  10.767   2.937  1.00  0.00    -0.040 A 
HETATM    5  C   UNL     1      62.730  10.104   5.182  1.00  0.00     0.019 A 
HETATM    6  C   UNL     1      62.287  11.081   4.285  1.00  0.00     0.009 A 
HETATM    7 CL   UNL     1      62.005   8.985   0.862  1.00  0.00    -0.084 Cl
HETATM    8  C   UNL     1      61.632  11.854   1.988  1.00  0.00     0.050 C 
ENDROOT
BRANCH   1   9
HETATM    9  C   UNL     1      63.457   7.733   5.634  1.00  0.00     0.209 C 
HETATM   10  O   UNL     1      64.280   6.911   5.273  1.00  0.00    -0.644 OA
HETATM   11  O   UNL     1      62.917   7.746   6.871  1.00  0.00    -0.644 OA
ENDBRANCH   1   9
TORSDOF 1
ENDMDL
MODEL 2
REMARK VINA RESULT:      -5.0      2.408      3.390
REMARK  1 active torsions:
REMARK  status: ('A' for Active; 'I' for Inactive)
REMARK    1  A    between atoms: C_1  and  C_2 
ROOT
HETATM    1  C   UNL     1      62.367  10.003   3.576  1.00  0.00     0.042 A 
HETATM    2  C   UNL     1      62.960   7.861   2.615  1.00  0.00     0.041 A 
HETATM    3  C   UNL     1      62.965   8.746   3.696  1.00  0.00     0.042 A 
HETATM    4  C   UNL     1      62.363   8.227   1.395  1.00  0.00    -0.040 A 
HETATM    5  C   UNL     1      61.769  10.379   2.366  1.00  0.00     0.019 A 
HETATM    6  C   UNL     1      61.762   9.489   1.289  1.00  0.00     0.009 A 
HETATM    7 CL   UNL     1      63.716   6.324   2.823  1.00  0.00    -0.084 Cl
HETATM    8  C   UNL     1      62.382   7.314   0.200  1.00  0.00     0.050 C 
ENDROOT
BRANCH   1   9
HETATM    9  C   UNL     1      62.451  10.930   4.730  1.00  0.00     0.209 C 
HETATM   10  O   UNL     1      62.067  12.085   4.677  1.00  0.00    -0.644 OA
HETATM   11  O   UNL     1      63.019  10.388   5.828  1.00  0.00    -0.644 OA
ENDBRANCH   1   9
TORSDOF 1
ENDMDL
MODEL 3
REMARK VINA RESULT:      -5.0      2.157      3.338
REMARK  1 active torsions:
REMARK  status: ('A' for Active; 'I' for Inactive)
REMARK    1  A    between atoms: C_1  and  C_2 
ROOT
HETATM    1  C   UNL     1      62.873   9.862   4.273  1.00  0.00     0.042 A 
HETATM    2  C   UNL     1      62.331   8.679   2.231  1.00  0.00     0.041 A 
HETATM    3  C   UNL     1      62.199   9.803   3.051  1.00  0.00     0.042 A 
HETATM    4  C   UNL     1      63.133   7.596   2.629  1.00  0.00    -0.040 A 
HETATM    5  C   UNL     1      63.675   8.790   4.680  1.00  0.00     0.019 A 
HETATM    6  C   UNL     1      63.809   7.669   3.855  1.00  0.00     0.009 A 
HETATM    7 CL   UNL     1      61.471   8.663   0.735  1.00  0.00    -0.084 Cl
HETATM    8  C   UNL     1      63.258   6.354   1.789  1.00  0.00     0.050 C 
ENDROOT
BRANCH   1   9
HETATM    9  C   UNL     1      62.653  11.049   5.136  1.00  0.00     0.209 C 
HETATM   10  O   UNL     1      63.072  11.120   6.277  1.00  0.00    -0.644 OA
HETATM   11  O   UNL     1      61.922  12.022   4.552  1.00  0.00    -0.644 OA
ENDBRANCH   1   9
TORSDOF 1
ENDMDL
MODEL 4
REMARK VINA RESULT:      -4.8      2.843      4.021
REMARK  1 active torsions:
REMARK  status: ('A' for Active; 'I' for Inactive)
REMARK    1  A    between atoms: C_1  and  C_2 
ROOT
HETATM    1  C   UNL     1      63.076   9.679   4.602  1.00  0.00     0.042 A 
HETATM    2  C   UNL     1      64.482   7.721   4.382  1.00  0.00     0.041 A 
HETATM    3  C   UNL     1      64.154   8.908   5.042  1.00  0.00     0.042 A 
HETATM    4  C   UNL     1      63.741   7.296   3.266  1.00  0.00    -0.040 A 
HETATM    5  C   UNL     1      62.329   9.267   3.492  1.00  0.00     0.019 A 
HETATM    6  C   UNL     1      62.657   8.076   2.837  1.00  0.00     0.009 A 
HETATM    7 CL   UNL     1      65.826   6.812   4.971  1.00  0.00    -0.084 Cl
HETATM    8  C   UNL     1      64.098   6.047   2.507  1.00  0.00     0.050 C 
ENDROOT
BRANCH   1   9
HETATM    9  C   UNL     1      62.805  10.962   5.297  1.00  0.00     0.209 C 
HETATM   10  O   UNL     1      63.223  11.207   6.415  1.00  0.00    -0.644 OA
HETATM   11  O   UNL     1      62.030  11.813   4.593  1.00  0.00    -0.644 OA
ENDBRANCH   1   9
TORSDOF 1
ENDMDL
MODEL 5
REMARK VINA RESULT:      -4.8      1.539      2.459
REMARK  1 active torsions:
REMARK  status: ('A' for Active; 'I' for Inactive)
REMARK    1  A    between atoms: C_1  and  C_2 
ROOT
HETATM    1  C   UNL     1      63.148   8.046   4.728  1.00  0.00     0.042 A 
HETATM    2  C   UNL     1      62.371   9.643   3.083  1.00  0.00     0.041 A 
HETATM    3  C   UNL     1      62.699   9.328   4.404  1.00  0.00     0.042 A 
HETATM    4  C   UNL     1      62.480   8.675   2.070  1.00  0.00    -0.040 A 
HETATM    5  C   UNL     1      63.261   7.072   3.728  1.00  0.00     0.019 A 
HETATM    6  C   UNL     1      62.937   7.392   2.407  1.00  0.00     0.009 A 
HETATM    7 CL   UNL     1      61.820  11.244   2.745  1.00  0.00    -0.084 Cl
HETATM    8  C   UNL     1      62.091   8.971   0.647  1.00  0.00     0.050 C 
ENDROOT
BRANCH   1   9
HETATM    9  C   UNL     1      63.424   7.742   6.153  1.00  0.00     0.209 C 
HETATM   10  O   UNL     1      62.546   7.666   6.994  1.00  0.00    -0.644 OA
HETATM   11  O   UNL     1      64.735   7.589   6.436  1.00  0.00    -0.644 OA
ENDBRANCH   1   9
TORSDOF 1
ENDMDL
MODEL 6
REMARK VINA RESULT:      -4.5      1.573      1.897
REMARK  1 active torsions:
REMARK  status: ('A' for Active; 'I' for Inactive)
REMARK    1  A    between atoms: C_1  and  C_2 
ROOT
HETATM    1  C   UNL     1      63.844   8.420   4.829  1.00  0.00     0.042 A 
HETATM    2  C   UNL     1      63.115   7.701   2.635  1.00  0.00     0.041 A 
HETATM    3  C   UNL     1      63.872   7.487   3.791  1.00  0.00     0.042 A 
HETATM    4  C   UNL     1      62.327   8.857   2.502  1.00  0.00    -0.040 A 
HETATM    5  C   UNL     1      63.063   9.576   4.709  1.00  0.00     0.019 A 
HETATM    6  C   UNL     1      62.303   9.784   3.554  1.00  0.00     0.009 A 
HETATM    7 CL   UNL     1      63.193   6.513   1.386  1.00  0.00    -0.084 Cl
HETATM    8  C   UNL     1      61.537   9.136   1.253  1.00  0.00     0.050 C 
ENDROOT
BRANCH   1   9
HETATM    9  C   UNL     1      64.712   8.180   6.008  1.00  0.00     0.209 C 
HETATM   10  O   UNL     1      65.817   8.679   6.126  1.00  0.00    -0.644 OA
HETATM   11  O   UNL     1      64.179   7.337   6.918  1.00  0.00    -0.644 OA
ENDBRANCH   1   9
TORSDOF 1
ENDMDL
MODEL 7
REMARK VINA RESULT:      -4.5      2.172      2.975
REMARK  1 active torsions:
REMARK  status: ('A' for Active; 'I' for Inactive)
REMARK    1  A    between atoms: C_1  and  C_2 
ROOT
HETATM    1  C   UNL     1      64.716   8.047   4.973  1.00  0.00     0.042 A 
HETATM    2  C   UNL     1      62.949   9.375   3.983  1.00  0.00     0.041 A 
HETATM    3  C   UNL     1      63.913   9.190   4.978  1.00  0.00     0.042 A 
HETATM    4  C   UNL     1      62.771   8.412   2.974  1.00  0.00    -0.040 A 
HETATM    5  C   UNL     1      64.549   7.081   3.973  1.00  0.00     0.019 A 
HETATM    6  C   UNL     1      63.587   7.271   2.977  1.00  0.00     0.009 A 
HETATM    7 CL   UNL     1      61.986  10.805   4.045  1.00  0.00    -0.084 Cl
HETATM    8  C   UNL     1      61.712   8.561   1.917  1.00  0.00     0.050 C 
ENDROOT
BRANCH   1   9
HETATM    9  C   UNL     1      65.682   7.866   6.084  1.00  0.00     0.209 C 
HETATM   10  O   UNL     1      66.336   8.785   6.544  1.00  0.00    -0.644 OA
HETATM   11  O   UNL     1      65.791   6.591   6.513  1.00  0.00    -0.644 OA
ENDBRANCH   1   9
TORSDOF 1
ENDMDL
MODEL 8
REMARK VINA RESULT:      -4.4      2.151      2.901
REMARK  1 active torsions:
REMARK  status: ('A' for Active; 'I' for Inactive)
REMARK    1  A    between atoms: C_1  and  C_2 
ROOT
HETATM    1  C   UNL     1      62.378   7.852   2.940  1.00  0.00     0.042 A 
HETATM    2  C   UNL     1      62.299  10.161   3.665  1.00  0.00     0.041 A 
HETATM    3  C   UNL     1      62.506   8.809   3.950  1.00  0.00     0.042 A 
HETATM    4  C   UNL     1      61.952  10.572   2.366  1.00  0.00    -0.040 A 
HETATM    5  C   UNL     1      62.033   8.249   1.642  1.00  0.00     0.019 A 
HETATM    6  C   UNL     1      61.832   9.603   1.359  1.00  0.00     0.009 A 
HETATM    7 CL   UNL     1      62.468  11.295   4.954  1.00  0.00    -0.084 Cl
HETATM    8  C   UNL     1      61.678  12.015   2.039  1.00  0.00     0.050 C 
ENDROOT
BRANCH   1   9
HETATM    9  C   UNL     1      62.547   6.424   3.305  1.00  0.00     0.209 C 
HETATM   10  O   UNL     1      63.253   6.059   4.228  1.00  0.00    -0.644 OA
HETATM   11  O   UNL     1      61.875   5.571   2.503  1.00  0.00    -0.644 OA
ENDBRANCH   1   9
TORSDOF 1
ENDMDL
MODEL 9
REMARK VINA RESULT:      -4.0      3.102      3.935
REMARK  1 active torsions:
REMARK  status: ('A' for Active; 'I' for Inactive)
REMARK    1  A    between atoms: C_1  and  C_2 
ROOT
HETATM    1  C   UNL     1      61.735   8.579   1.973  1.00  0.00     0.042 A 
HETATM    2  C   UNL     1      62.387   8.986   4.269  1.00  0.00     0.041 A 
HETATM    3  C   UNL     1      62.110   8.095   3.228  1.00  0.00     0.042 A 
HETATM    4  C   UNL     1      62.284  10.373   4.068  1.00  0.00    -0.040 A 
HETATM    5  C   UNL     1      61.629   9.959   1.759  1.00  0.00     0.019 A 
HETATM    6  C   UNL     1      61.912  10.847   2.801  1.00  0.00     0.009 A 
HETATM    7 CL   UNL     1      62.842   8.328   5.798  1.00  0.00    -0.084 Cl
HETATM    8  C   UNL     1      62.531  11.355   5.181  1.00  0.00     0.050 C 
ENDROOT
BRANCH   1   9
HETATM    9  C   UNL     1      61.391   7.594   0.918  1.00  0.00     0.209 C 
HETATM   10  O   UNL     1      62.066   6.605   0.696  1.00  0.00    -0.644 OA
HETATM   11  O   UNL     1      60.286   7.911   0.211  1.00  0.00    -0.644 OA
ENDBRANCH   1   9
TORSDOF 1
ENDMDL
