MODEL 1
REMARK VINA RESULT:      -5.1      0.000      0.000
REMARK  3 active torsions:
REMARK  status: ('A' for Active; 'I' for Inactive)
REMARK    1  A    between atoms: C_1  and  O_2 
REMARK    2  A    between atoms: O_2  and  C_11 
REMARK    3  A    between atoms: C_3  and  C_4 
ROOT
HETATM    1  C   UNL     1      65.035   8.049   4.857  1.00  0.00     0.009 A 
HETATM    2  C   UNL     1      64.753   7.078   3.889  1.00  0.00     0.018 A 
HETATM    3  C   UNL     1      64.134   9.100   5.055  1.00  0.00     0.018 A 
HETATM    4  C   UNL     1      62.705   8.229   3.294  1.00  0.00     0.078 A 
HETATM    5  C   UNL     1      62.971   9.178   4.288  1.00  0.00     0.038 A 
HETATM    6  C   UNL     1      63.582   7.159   3.120  1.00  0.00     0.038 A 
ENDROOT
BRANCH   4   7
HETATM    7  O   UNL     1      61.556   8.445   2.599  1.00  0.00    -0.255 OA
BRANCH   7   8
HETATM    8  C   UNL     1      61.601   9.206   1.399  1.00  0.00     0.530 C 
HETATM    9  F   UNL     1      62.768   9.105   0.729  1.00  0.00    -0.144 F 
HETATM   10  F   UNL     1      61.417  10.507   1.712  1.00  0.00    -0.144 F 
HETATM   11  F   UNL     1      60.593   8.820   0.586  1.00  0.00    -0.144 F 
ENDBRANCH   7   8
ENDBRANCH   4   7
BRANCH   1  12
HETATM   12  C   UNL     1      66.274   8.004   5.679  1.00  0.00     0.155 C 
HETATM   13  O   UNL     1      66.413   8.783   6.619  1.00  0.00    -0.293 OA
HETATM   14  C   UNL     1      67.320   6.975   5.344  1.00  0.00     0.096 C 
ENDBRANCH   1  12
TORSDOF 3
ENDMDL
MODEL 2
REMARK VINA RESULT:      -4.9      3.453      5.693
REMARK  3 active torsions:
REMARK  status: ('A' for Active; 'I' for Inactive)
REMARK    1  A    between atoms: C_1  and  O_2 
REMARK    2  A    between atoms: O_2  and  C_11 
REMARK    3  A    between atoms: C_3  and  C_4 
ROOT
HETATM    1  C   UNL     1      62.495   9.455   3.171  1.00  0.00     0.009 A 
HETATM    2  C   UNL     1      62.558  10.102   4.410  1.00  0.00     0.018 A 
HETATM    3  C   UNL     1      63.051   8.179   3.034  1.00  0.00     0.018 A 
HETATM    4  C   UNL     1      63.765   8.225   5.356  1.00  0.00     0.078 A 
HETATM    5  C   UNL     1      63.667   7.565   4.124  1.00  0.00     0.038 A 
HETATM    6  C   UNL     1      63.178   9.481   5.505  1.00  0.00     0.038 A 
ENDROOT
BRANCH   4   7
HETATM    7  O   UNL     1      64.421   7.526   6.321  1.00  0.00    -0.255 OA
BRANCH   7   8
HETATM    8  C   UNL     1      65.840   7.454   6.285  1.00  0.00     0.530 C 
HETATM    9  F   UNL     1      66.416   8.365   5.473  1.00  0.00    -0.144 F 
HETATM   10  F   UNL     1      66.193   6.227   5.843  1.00  0.00    -0.144 F 
HETATM   11  F   UNL     1      66.329   7.609   7.535  1.00  0.00    -0.144 F 
ENDBRANCH   7   8
ENDBRANCH   4   7
BRANCH   1  12
HETATM   12  C   UNL     1      61.860  10.090   1.983  1.00  0.00     0.155 C 
HETATM   13  O   UNL     1      61.409   9.387   1.082  1.00  0.00    -0.293 OA
HETATM   14  C   UNL     1      61.768  11.591   1.938  1.00  0.00     0.096 C 
ENDBRANCH   1  12
TORSDOF 3
ENDMDL
MODEL 3
REMARK VINA RESULT:      -4.5      2.405      2.956
REMARK  3 active torsions:
REMARK  status: ('A' for Active; 'I' for Inactive)
REMARK    1  A    between atoms: C_1  and  O_2 
REMARK    2  A    between atoms: O_2  and  C_11 
REMARK    3  A    between atoms: C_3  and  C_4 
ROOT
HETATM    1  C   UNL     1      65.086   6.790   6.734  1.00  0.00     0.009 A 
HETATM    2  C   UNL     1      63.746   6.512   6.440  1.00  0.00     0.018 A 
HETATM    3  C   UNL     1      65.751   7.790   6.016  1.00  0.00     0.018 A 
HETATM    4  C   UNL     1      63.753   8.193   4.694  1.00  0.00     0.078 A 
HETATM    5  C   UNL     1      65.083   8.494   5.015  1.00  0.00     0.038 A 
HETATM    6  C   UNL     1      63.077   7.223   5.433  1.00  0.00     0.038 A 
ENDROOT
BRANCH   4   7
HETATM    7  O   UNL     1      63.236   8.931   3.675  1.00  0.00    -0.255 OA
BRANCH   7   8
HETATM    8  C   UNL     1      62.270   9.933   3.962  1.00  0.00     0.530 C 
HETATM    9  F   UNL     1      62.421  10.510   5.173  1.00  0.00    -0.144 F 
HETATM   10  F   UNL     1      61.044   9.367   3.925  1.00  0.00    -0.144 F 
HETATM   11  F   UNL     1      62.322  10.891   3.010  1.00  0.00    -0.144 F 
ENDBRANCH   7   8
ENDBRANCH   4   7
BRANCH   1  12
HETATM   12  C   UNL     1      65.833   6.046   7.784  1.00  0.00     0.155 C 
HETATM   13  O   UNL     1      65.579   4.862   7.992  1.00  0.00    -0.293 OA
HETATM   14  C   UNL     1      66.909   6.771   8.547  1.00  0.00     0.096 C 
ENDBRANCH   1  12
TORSDOF 3
ENDMDL
MODEL 4
REMARK VINA RESULT:      -4.5      4.177      5.345
REMARK  3 active torsions:
REMARK  status: ('A' for Active; 'I' for Inactive)
REMARK    1  A    between atoms: C_1  and  O_2 
REMARK    2  A    between atoms: O_2  and  C_11 
REMARK    3  A    between atoms: C_3  and  C_4 
ROOT
HETATM    1  C   UNL     1      62.021   9.662   4.034  1.00  0.00     0.009 A 
HETATM    2  C   UNL     1      62.926   9.357   5.057  1.00  0.00     0.018 A 
HETATM    3  C   UNL     1      61.147   8.671   3.575  1.00  0.00     0.018 A 
HETATM    4  C   UNL     1      62.117   7.073   5.127  1.00  0.00     0.078 A 
HETATM    5  C   UNL     1      61.187   7.392   4.129  1.00  0.00     0.038 A 
HETATM    6  C   UNL     1      62.963   8.069   5.613  1.00  0.00     0.038 A 
ENDROOT
BRANCH   4   7
HETATM    7  O   UNL     1      62.070   5.782   5.552  1.00  0.00    -0.255 OA
BRANCH   7   8
HETATM    8  C   UNL     1      61.044   5.382   6.452  1.00  0.00     0.530 C 
HETATM    9  F   UNL     1      59.892   5.025   5.846  1.00  0.00    -0.144 F 
HETATM   10  F   UNL     1      60.773   6.417   7.276  1.00  0.00    -0.144 F 
HETATM   11  F   UNL     1      61.484   4.348   7.202  1.00  0.00    -0.144 F 
ENDBRANCH   7   8
ENDBRANCH   4   7
BRANCH   1  12
HETATM   12  C   UNL     1      61.964  11.011   3.409  1.00  0.00     0.155 C 
HETATM   13  O   UNL     1      61.982  12.015   4.117  1.00  0.00    -0.293 OA
HETATM   14  C   UNL     1      61.914  11.102   1.907  1.00  0.00     0.096 C 
ENDBRANCH   1  12
TORSDOF 3
ENDMDL
MODEL 5
REMARK VINA RESULT:      -4.5      1.224      1.519
REMARK  3 active torsions:
REMARK  status: ('A' for Active; 'I' for Inactive)
REMARK    1  A    between atoms: C_1  and  O_2 
REMARK    2  A    between atoms: O_2  and  C_11 
REMARK    3  A    between atoms: C_3  and  C_4 
ROOT
HETATM    1  C   UNL     1      64.167   7.539   5.575  1.00  0.00     0.009 A 
HETATM    2  C   UNL     1      63.133   6.689   5.168  1.00  0.00     0.018 A 
HETATM    3  C   UNL     1      64.185   8.863   5.122  1.00  0.00     0.018 A 
HETATM    4  C   UNL     1      62.168   8.463   3.827  1.00  0.00     0.078 A 
HETATM    5  C   UNL     1      63.184   9.322   4.266  1.00  0.00     0.038 A 
HETATM    6  C   UNL     1      62.127   7.155   4.307  1.00  0.00     0.038 A 
ENDROOT
BRANCH   4   7
HETATM    7  O   UNL     1      61.279   9.032   2.969  1.00  0.00    -0.255 OA
BRANCH   7   8
HETATM    8  C   UNL     1      61.654   9.238   1.614  1.00  0.00     0.530 C 
HETATM    9  F   UNL     1      62.029  10.505   1.335  1.00  0.00    -0.144 F 
HETATM   10  F   UNL     1      60.595   8.941   0.829  1.00  0.00    -0.144 F 
HETATM   11  F   UNL     1      62.664   8.400   1.295  1.00  0.00    -0.144 F 
ENDBRANCH   7   8
ENDBRANCH   4   7
BRANCH   1  12
HETATM   12  C   UNL     1      65.260   7.076   6.473  1.00  0.00     0.155 C 
HETATM   13  O   UNL     1      65.048   6.941   7.675  1.00  0.00    -0.293 OA
HETATM   14  C   UNL     1      66.599   6.758   5.864  1.00  0.00     0.096 C 
ENDBRANCH   1  12
TORSDOF 3
ENDMDL
MODEL 6
REMARK VINA RESULT:      -4.3      3.265      4.832
REMARK  3 active torsions:
REMARK  status: ('A' for Active; 'I' for Inactive)
REMARK    1  A    between atoms: C_1  and  O_2 
REMARK    2  A    between atoms: O_2  and  C_11 
REMARK    3  A    between atoms: C_3  and  C_4 
ROOT
HETATM    1  C   UNL     1      62.208   9.897   3.658  1.00  0.00     0.009 A 
HETATM    2  C   UNL     1      63.131   9.485   4.626  1.00  0.00     0.018 A 
HETATM    3  C   UNL     1      61.572   8.936   2.865  1.00  0.00     0.018 A 
HETATM    4  C   UNL     1      62.815   7.171   3.979  1.00  0.00     0.078 A 
HETATM    5  C   UNL     1      61.865   7.583   3.036  1.00  0.00     0.038 A 
HETATM    6  C   UNL     1      63.422   8.123   4.796  1.00  0.00     0.038 A 
ENDROOT
BRANCH   4   7
HETATM    7  O   UNL     1      63.029   5.828   4.016  1.00  0.00    -0.255 OA
BRANCH   7   8
HETATM    8  C   UNL     1      64.244   5.301   3.500  1.00  0.00     0.530 C 
HETATM    9  F   UNL     1      65.330   5.598   4.243  1.00  0.00    -0.144 F 
HETATM   10  F   UNL     1      64.438   5.811   2.264  1.00  0.00    -0.144 F 
HETATM   11  F   UNL     1      64.140   3.958   3.391  1.00  0.00    -0.144 F 
ENDBRANCH   7   8
ENDBRANCH   4   7
BRANCH   1  12
HETATM   12  C   UNL     1      61.887  11.333   3.437  1.00  0.00     0.155 C 
HETATM   13  O   UNL     1      61.794  12.094   4.398  1.00  0.00    -0.293 OA
HETATM   14  C   UNL     1      61.709  11.818   2.023  1.00  0.00     0.096 C 
ENDBRANCH   1  12
TORSDOF 3
ENDMDL
MODEL 7
REMARK VINA RESULT:      -4.2      3.478      5.674
REMARK  3 active torsions:
REMARK  status: ('A' for Active; 'I' for Inactive)
REMARK    1  A    between atoms: C_1  and  O_2 
REMARK    2  A    between atoms: O_2  and  C_11 
REMARK    3  A    between atoms: C_3  and  C_4 
ROOT
HETATM    1  C   UNL     1      62.317   8.173   3.325  1.00  0.00     0.009 A 
HETATM    2  C   UNL     1      62.946   9.276   3.913  1.00  0.00     0.018 A 
HETATM    3  C   UNL     1      62.517   6.900   3.870  1.00  0.00     0.018 A 
HETATM    4  C   UNL     1      64.000   7.835   5.552  1.00  0.00     0.078 A 
HETATM    5  C   UNL     1      63.341   6.738   4.984  1.00  0.00     0.038 A 
HETATM    6  C   UNL     1      63.773   9.109   5.034  1.00  0.00     0.038 A 
ENDROOT
BRANCH   4   7
HETATM    7  O   UNL     1      64.799   7.529   6.610  1.00  0.00    -0.255 OA
BRANCH   7   8
HETATM    8  C   UNL     1      66.211   7.576   6.453  1.00  0.00     0.530 C 
HETATM    9  F   UNL     1      66.878   6.692   7.225  1.00  0.00    -0.144 F 
HETATM   10  F   UNL     1      66.635   8.815   6.784  1.00  0.00    -0.144 F 
HETATM   11  F   UNL     1      66.526   7.353   5.158  1.00  0.00    -0.144 F 
ENDBRANCH   7   8
ENDBRANCH   4   7
BRANCH   1  12
HETATM   12  C   UNL     1      61.447   8.309   2.126  1.00  0.00     0.155 C 
HETATM   13  O   UNL     1      60.350   7.755   2.099  1.00  0.00    -0.293 OA
HETATM   14  C   UNL     1      61.935   9.154   0.980  1.00  0.00     0.096 C 
ENDBRANCH   1  12
TORSDOF 3
ENDMDL
MODEL 8
REMARK VINA RESULT:      -4.1      4.081      5.387
REMARK  3 active torsions:
REMARK  status: ('A' for Active; 'I' for Inactive)
REMARK    1  A    between atoms: C_1  and  O_2 
REMARK    2  A    between atoms: O_2  and  C_11 
REMARK    3  A    between atoms: C_3  and  C_4 
ROOT
HETATM    1  C   UNL     1      63.845   8.819   4.618  1.00  0.00     0.009 A 
HETATM    2  C   UNL     1      65.080   8.655   5.256  1.00  0.00     0.018 A 
HETATM    3  C   UNL     1      63.450   7.897   3.643  1.00  0.00     0.018 A 
HETATM    4  C   UNL     1      65.538   6.685   3.922  1.00  0.00     0.078 A 
HETATM    5  C   UNL     1      64.286   6.830   3.310  1.00  0.00     0.038 A 
HETATM    6  C   UNL     1      65.917   7.581   4.920  1.00  0.00     0.038 A 
ENDROOT
BRANCH   4   7
HETATM    7  O   UNL     1      66.263   5.623   3.478  1.00  0.00    -0.255 OA
BRANCH   7   8
HETATM    8  C   UNL     1      66.507   4.531   4.355  1.00  0.00     0.530 C 
HETATM    9  F   UNL     1      65.520   4.315   5.250  1.00  0.00    -0.144 F 
HETATM   10  F   UNL     1      67.641   4.784   5.044  1.00  0.00    -0.144 F 
HETATM   11  F   UNL     1      66.696   3.407   3.629  1.00  0.00    -0.144 F 
ENDBRANCH   7   8
ENDBRANCH   4   7
BRANCH   1  12
HETATM   12  C   UNL     1      62.938   9.955   4.936  1.00  0.00     0.155 C 
HETATM   13  O   UNL     1      63.004  10.501   6.035  1.00  0.00    -0.293 OA
HETATM   14  C   UNL     1      61.975  10.421   3.878  1.00  0.00     0.096 C 
ENDBRANCH   1  12
TORSDOF 3
ENDMDL
MODEL 9
REMARK VINA RESULT:      -4.0      4.972      6.754
REMARK  3 active torsions:
REMARK  status: ('A' for Active; 'I' for Inactive)
REMARK    1  A    between atoms: C_1  and  O_2 
REMARK    2  A    between atoms: O_2  and  C_11 
REMARK    3  A    between atoms: C_3  and  C_4 
ROOT
HETATM    1  C   UNL     1      64.957   7.017   4.456  1.00  0.00     0.009 A 
HETATM    2  C   UNL     1      65.530   5.745   4.562  1.00  0.00     0.018 A 
HETATM    3  C   UNL     1      65.346   8.021   5.348  1.00  0.00     0.018 A 
HETATM    4  C   UNL     1      66.841   6.467   6.469  1.00  0.00     0.078 A 
HETATM    5  C   UNL     1      66.292   7.749   6.337  1.00  0.00     0.038 A 
HETATM    6  C   UNL     1      66.483   5.475   5.557  1.00  0.00     0.038 A 
ENDROOT
BRANCH   4   7
HETATM    7  O   UNL     1      67.723   6.333   7.495  1.00  0.00    -0.255 OA
BRANCH   7   8
HETATM    8  C   UNL     1      67.242   5.981   8.786  1.00  0.00     0.530 C 
HETATM    9  F   UNL     1      68.073   5.174   9.480  1.00  0.00    -0.144 F 
HETATM   10  F   UNL     1      66.066   5.332   8.640  1.00  0.00    -0.144 F 
HETATM   11  F   UNL     1      67.019   7.104   9.503  1.00  0.00    -0.144 F 
ENDBRANCH   7   8
ENDBRANCH   4   7
BRANCH   1  12
HETATM   12  C   UNL     1      63.932   7.335   3.425  1.00  0.00     0.155 C 
HETATM   13  O   UNL     1      63.801   6.603   2.446  1.00  0.00    -0.293 OA
HETATM   14  C   UNL     1      63.059   8.544   3.632  1.00  0.00     0.096 C 
ENDBRANCH   1  12
TORSDOF 3
ENDMDL
