MODEL 1
REMARK VINA RESULT:      -5.3      0.000      0.000
REMARK  2 active torsions:
REMARK  status: ('A' for Active; 'I' for Inactive)
REMARK    1  A    between atoms: C_1  and  C_2 
REMARK    2  A    between atoms: C_1  and  O_5 
ROOT
HETATM    1  C   UNL     1      62.862   9.474   4.181  1.00  0.00     0.040 A 
HETATM    2  C   UNL     1      62.783   8.734   2.992  1.00  0.00     0.024 A 
HETATM    3  C   UNL     1      62.225   9.301   1.835  1.00  0.00    -0.061 A 
HETATM    4  C   UNL     1      62.380  10.791   4.205  1.00  0.00     0.017 A 
HETATM    5  C   UNL     1      61.823  11.358   3.059  1.00  0.00     0.002 A 
HETATM    6  C   UNL     1      61.746  10.616   1.881  1.00  0.00     0.007 A 
HETATM    7  C   UNL     1      62.135   8.521   0.556  1.00  0.00     0.048 C 
ENDROOT
BRANCH   1   8
HETATM    8  C   UNL     1      63.441   8.921   5.438  1.00  0.00     0.292 C 
HETATM    9  O   UNL     1      62.803   8.244   6.229  1.00  0.00    -0.259 OA
BRANCH   8  10
HETATM   10  O   UNL     1      64.746   9.267   5.569  1.00  0.00    -0.323 OA
HETATM   11  C   UNL     1      65.650   8.166   5.451  1.00  0.00     0.213 C 
ENDBRANCH   8  10
ENDBRANCH   1   8
TORSDOF 2
ENDMDL
MODEL 2
REMARK VINA RESULT:      -5.0      0.658      1.944
REMARK  2 active torsions:
REMARK  status: ('A' for Active; 'I' for Inactive)
REMARK    1  A    between atoms: C_1  and  C_2 
REMARK    2  A    between atoms: C_1  and  O_5 
ROOT
HETATM    1  C   UNL     1      62.913   9.053   4.007  1.00  0.00     0.040 A 
HETATM    2  C   UNL     1      62.493  10.339   3.638  1.00  0.00     0.024 A 
HETATM    3  C   UNL     1      62.006  10.587   2.345  1.00  0.00    -0.061 A 
HETATM    4  C   UNL     1      62.841   8.011   3.072  1.00  0.00     0.017 A 
HETATM    5  C   UNL     1      62.360   8.252   1.785  1.00  0.00     0.002 A 
HETATM    6  C   UNL     1      61.946   9.533   1.424  1.00  0.00     0.007 A 
HETATM    7  C   UNL     1      61.552  11.957   1.937  1.00  0.00     0.048 C 
ENDROOT
BRANCH   1   8
HETATM    8  C   UNL     1      63.441   8.736   5.364  1.00  0.00     0.292 C 
HETATM    9  O   UNL     1      62.800   8.130   6.209  1.00  0.00    -0.259 OA
BRANCH   8  10
HETATM   10  O   UNL     1      64.705   9.204   5.519  1.00  0.00    -0.323 OA
HETATM   11  C   UNL     1      65.696   8.177   5.587  1.00  0.00     0.213 C 
ENDBRANCH   8  10
ENDBRANCH   1   8
TORSDOF 2
ENDMDL
MODEL 3
REMARK VINA RESULT:      -4.4      1.587      2.940
REMARK  2 active torsions:
REMARK  status: ('A' for Active; 'I' for Inactive)
REMARK    1  A    between atoms: C_1  and  C_2 
REMARK    2  A    between atoms: C_1  and  O_5 
ROOT
HETATM    1  C   UNL     1      64.287   8.240   4.892  1.00  0.00     0.040 A 
HETATM    2  C   UNL     1      63.483   9.367   4.660  1.00  0.00     0.024 A 
HETATM    3  C   UNL     1      62.666   9.437   3.521  1.00  0.00    -0.061 A 
HETATM    4  C   UNL     1      64.266   7.180   3.975  1.00  0.00     0.017 A 
HETATM    5  C   UNL     1      63.457   7.245   2.841  1.00  0.00     0.002 A 
HETATM    6  C   UNL     1      62.662   8.368   2.615  1.00  0.00     0.007 A 
HETATM    7  C   UNL     1      61.800  10.634   3.262  1.00  0.00     0.048 C 
ENDROOT
BRANCH   1   8
HETATM    8  C   UNL     1      65.175   8.116   6.082  1.00  0.00     0.292 C 
HETATM    9  O   UNL     1      66.138   8.841   6.280  1.00  0.00    -0.259 OA
BRANCH   8  10
HETATM   10  O   UNL     1      64.768   7.107   6.893  1.00  0.00    -0.323 OA
HETATM   11  C   UNL     1      65.810   6.565   7.707  1.00  0.00     0.213 C 
ENDBRANCH   8  10
ENDBRANCH   1   8
TORSDOF 2
ENDMDL
MODEL 4
REMARK VINA RESULT:      -3.9      2.004      4.016
REMARK  2 active torsions:
REMARK  status: ('A' for Active; 'I' for Inactive)
REMARK    1  A    between atoms: C_1  and  C_2 
REMARK    2  A    between atoms: C_1  and  O_5 
ROOT
HETATM    1  C   UNL     1      64.436   8.343   4.601  1.00  0.00     0.040 A 
HETATM    2  C   UNL     1      63.904   7.479   3.632  1.00  0.00     0.024 A 
HETATM    3  C   UNL     1      64.643   6.375   3.179  1.00  0.00    -0.061 A 
HETATM    4  C   UNL     1      65.715   8.094   5.117  1.00  0.00     0.017 A 
HETATM    5  C   UNL     1      66.455   6.999   4.669  1.00  0.00     0.002 A 
HETATM    6  C   UNL     1      65.921   6.145   3.704  1.00  0.00     0.007 A 
HETATM    7  C   UNL     1      64.085   5.442   2.145  1.00  0.00     0.048 C 
ENDROOT
BRANCH   1   8
HETATM    8  C   UNL     1      63.696   9.531   5.114  1.00  0.00     0.292 C 
HETATM    9  O   UNL     1      64.196  10.364   5.855  1.00  0.00    -0.259 OA
BRANCH   8  10
HETATM   10  O   UNL     1      62.422   9.553   4.648  1.00  0.00    -0.323 OA
HETATM   11  C   UNL     1      62.072  10.769   3.984  1.00  0.00     0.213 C 
ENDBRANCH   8  10
ENDBRANCH   1   8
TORSDOF 2
ENDMDL
MODEL 5
REMARK VINA RESULT:      -3.9      2.364      3.974
REMARK  2 active torsions:
REMARK  status: ('A' for Active; 'I' for Inactive)
REMARK    1  A    between atoms: C_1  and  C_2 
REMARK    2  A    between atoms: C_1  and  O_5 
ROOT
HETATM    1  C   UNL     1      62.172   9.156   3.326  1.00  0.00     0.040 A 
HETATM    2  C   UNL     1      63.279   8.456   3.828  1.00  0.00     0.024 A 
HETATM    3  C   UNL     1      64.041   8.988   4.880  1.00  0.00    -0.061 A 
HETATM    4  C   UNL     1      61.829  10.394   3.888  1.00  0.00     0.017 A 
HETATM    5  C   UNL     1      62.584  10.927   4.932  1.00  0.00     0.002 A 
HETATM    6  C   UNL     1      63.684  10.228   5.425  1.00  0.00     0.007 A 
HETATM    7  C   UNL     1      65.227   8.249   5.427  1.00  0.00     0.048 C 
ENDROOT
BRANCH   1   8
HETATM    8  C   UNL     1      61.331   8.640   2.209  1.00  0.00     0.292 C 
HETATM    9  O   UNL     1      60.287   8.029   2.381  1.00  0.00    -0.259 OA
BRANCH   8  10
HETATM   10  O   UNL     1      61.877   8.944   1.005  1.00  0.00    -0.323 OA
HETATM   11  C   UNL     1      62.259   7.799   0.239  1.00  0.00     0.213 C 
ENDBRANCH   8  10
ENDBRANCH   1   8
TORSDOF 2
ENDMDL
MODEL 6
REMARK VINA RESULT:      -3.8      2.247      4.363
REMARK  2 active torsions:
REMARK  status: ('A' for Active; 'I' for Inactive)
REMARK    1  A    between atoms: C_1  and  C_2 
REMARK    2  A    between atoms: C_1  and  O_5 
ROOT
HETATM    1  C   UNL     1      62.997   8.917   4.716  1.00  0.00     0.040 A 
HETATM    2  C   UNL     1      62.234   7.822   5.149  1.00  0.00     0.024 A 
HETATM    3  C   UNL     1      62.856   6.710   5.740  1.00  0.00    -0.061 A 
HETATM    4  C   UNL     1      64.389   8.895   4.881  1.00  0.00     0.017 A 
HETATM    5  C   UNL     1      65.011   7.792   5.466  1.00  0.00     0.002 A 
HETATM    6  C   UNL     1      64.248   6.706   5.892  1.00  0.00     0.007 A 
HETATM    7  C   UNL     1      62.052   5.533   6.209  1.00  0.00     0.048 C 
ENDROOT
BRANCH   1   8
HETATM    8  C   UNL     1      62.390  10.121   4.080  1.00  0.00     0.292 C 
HETATM    9  O   UNL     1      62.121  11.141   4.695  1.00  0.00    -0.259 OA
BRANCH   8  10
HETATM   10  O   UNL     1      62.188   9.923   2.753  1.00  0.00    -0.323 OA
HETATM   11  C   UNL     1      61.833  11.110   2.041  1.00  0.00     0.213 C 
ENDBRANCH   8  10
ENDBRANCH   1   8
TORSDOF 2
ENDMDL
MODEL 7
REMARK VINA RESULT:      -3.7      2.181      3.339
REMARK  2 active torsions:
REMARK  status: ('A' for Active; 'I' for Inactive)
REMARK    1  A    between atoms: C_1  and  C_2 
REMARK    2  A    between atoms: C_1  and  O_5 
ROOT
HETATM    1  C   UNL     1      63.617   7.979   3.657  1.00  0.00     0.040 A 
HETATM    2  C   UNL     1      63.623   8.953   4.666  1.00  0.00     0.024 A 
HETATM    3  C   UNL     1      62.824  10.103   4.551  1.00  0.00    -0.061 A 
HETATM    4  C   UNL     1      62.803   8.160   2.530  1.00  0.00     0.017 A 
HETATM    5  C   UNL     1      62.009   9.301   2.410  1.00  0.00     0.002 A 
HETATM    6  C   UNL     1      62.021  10.267   3.415  1.00  0.00     0.007 A 
HETATM    7  C   UNL     1      62.820  11.152   5.623  1.00  0.00     0.048 C 
ENDROOT
BRANCH   1   8
HETATM    8  C   UNL     1      64.446   6.743   3.726  1.00  0.00     0.292 C 
HETATM    9  O   UNL     1      65.667   6.755   3.775  1.00  0.00    -0.259 OA
BRANCH   8  10
HETATM   10  O   UNL     1      63.669   5.631   3.730  1.00  0.00    -0.323 OA
HETATM   11  C   UNL     1      63.516   5.038   5.021  1.00  0.00     0.213 C 
ENDBRANCH   8  10
ENDBRANCH   1   8
TORSDOF 2
ENDMDL
MODEL 8
REMARK VINA RESULT:      -3.7      2.105      3.012
REMARK  2 active torsions:
REMARK  status: ('A' for Active; 'I' for Inactive)
REMARK    1  A    between atoms: C_1  and  C_2 
REMARK    2  A    between atoms: C_1  and  O_5 
ROOT
HETATM    1  C   UNL     1      61.674   9.083   2.670  1.00  0.00     0.040 A 
HETATM    2  C   UNL     1      60.632   8.155   2.815  1.00  0.00     0.024 A 
HETATM    3  C   UNL     1      60.209   7.381   1.723  1.00  0.00    -0.061 A 
HETATM    4  C   UNL     1      62.294   9.230   1.421  1.00  0.00     0.017 A 
HETATM    5  C   UNL     1      61.876   8.465   0.332  1.00  0.00     0.002 A 
HETATM    6  C   UNL     1      60.839   7.546   0.483  1.00  0.00     0.007 A 
HETATM    7  C   UNL     1      59.097   6.383   1.865  1.00  0.00     0.048 C 
ENDROOT
BRANCH   1   8
HETATM    8  C   UNL     1      62.160   9.932   3.794  1.00  0.00     0.292 C 
HETATM    9  O   UNL     1      61.613  10.969   4.136  1.00  0.00    -0.259 OA
BRANCH   8  10
HETATM   10  O   UNL     1      63.266   9.397   4.368  1.00  0.00    -0.323 OA
HETATM   11  C   UNL     1      62.984   8.540   5.477  1.00  0.00     0.213 C 
ENDBRANCH   8  10
ENDBRANCH   1   8
TORSDOF 2
ENDMDL
MODEL 9
REMARK VINA RESULT:      -3.6      2.339      3.466
REMARK  2 active torsions:
REMARK  status: ('A' for Active; 'I' for Inactive)
REMARK    1  A    between atoms: C_1  and  C_2 
REMARK    2  A    between atoms: C_1  and  O_5 
ROOT
HETATM    1  C   UNL     1      61.638   7.866   2.873  1.00  0.00     0.040 A 
HETATM    2  C   UNL     1      61.718   8.973   3.731  1.00  0.00     0.024 A 
HETATM    3  C   UNL     1      61.934  10.261   3.214  1.00  0.00    -0.061 A 
HETATM    4  C   UNL     1      61.773   8.056   1.491  1.00  0.00     0.017 A 
HETATM    5  C   UNL     1      61.990   9.332   0.972  1.00  0.00     0.002 A 
HETATM    6  C   UNL     1      62.071  10.428   1.830  1.00  0.00     0.007 A 
HETATM    7  C   UNL     1      62.020  11.454   4.120  1.00  0.00     0.048 C 
ENDROOT
BRANCH   1   8
HETATM    8  C   UNL     1      61.414   6.478   3.368  1.00  0.00     0.292 C 
HETATM    9  O   UNL     1      61.132   5.542   2.636  1.00  0.00    -0.259 OA
BRANCH   8  10
HETATM   10  O   UNL     1      61.568   6.408   4.714  1.00  0.00    -0.323 OA
HETATM   11  C   UNL     1      62.254   5.234   5.156  1.00  0.00     0.213 C 
ENDBRANCH   8  10
ENDBRANCH   1   8
TORSDOF 2
ENDMDL
