MODEL 1
REMARK VINA RESULT:      -5.4      0.000      0.000
REMARK  1 active torsions:
REMARK  status: ('A' for Active; 'I' for Inactive)
REMARK    1  A    between atoms: C_1  and  C_2 
REMARK       I    between atoms: C_1  and  N_9 
ROOT
HETATM    1  C   UNL     1      62.866   8.819   4.731  1.00  0.00     0.032 A 
HETATM    2  C   UNL     1      62.632   8.482   3.392  1.00  0.00     0.024 A 
HETATM    3  C   UNL     1      62.232   9.457   2.462  1.00  0.00    -0.055 A 
HETATM    4  C   UNL     1      62.064  10.790   2.891  1.00  0.00    -0.056 A 
HETATM    5  C   UNL     1      62.699  10.138   5.153  1.00  0.00     0.017 A 
HETATM    6  C   UNL     1      62.308  11.116   4.237  1.00  0.00     0.008 A 
HETATM    7  C   UNL     1      61.978   9.042   1.039  1.00  0.00     0.049 C 
HETATM    8  C   UNL     1      61.607  11.894   1.977  1.00  0.00     0.049 C 
ENDROOT
BRANCH   1   9
HETATM    9  C   UNL     1      63.253   7.793   5.731  1.00  0.00     0.249 C 
HETATM   10  O   UNL     1      62.795   7.791   6.864  1.00  0.00    -0.268 OA
HETATM   11  N   UNL     1      64.177   6.866   5.336  1.00  0.00    -0.366 N 
HETATM   12  H   UNL     1      64.533   6.885   4.418  1.00  0.00     0.159 HD
HETATM   13  H   UNL     1      64.487   6.178   5.969  1.00  0.00     0.159 HD
ENDBRANCH   1   9
TORSDOF 1
ENDMDL
MODEL 2
REMARK VINA RESULT:      -5.3      2.334      3.360
REMARK  1 active torsions:
REMARK  status: ('A' for Active; 'I' for Inactive)
REMARK    1  A    between atoms: C_1  and  C_2 
REMARK       I    between atoms: C_1  and  N_9 
ROOT
HETATM    1  C   UNL     1      62.699   9.963   4.117  1.00  0.00     0.032 A 
HETATM    2  C   UNL     1      62.131   9.853   2.841  1.00  0.00     0.024 A 
HETATM    3  C   UNL     1      62.303   8.688   2.074  1.00  0.00    -0.055 A 
HETATM    4  C   UNL     1      63.060   7.621   2.601  1.00  0.00    -0.056 A 
HETATM    5  C   UNL     1      63.448   8.907   4.636  1.00  0.00     0.017 A 
HETATM    6  C   UNL     1      63.619   7.743   3.885  1.00  0.00     0.008 A 
HETATM    7  C   UNL     1      61.687   8.624   0.704  1.00  0.00     0.049 C 
HETATM    8  C   UNL     1      63.325   6.350   1.842  1.00  0.00     0.049 C 
ENDROOT
BRANCH   1   9
HETATM    9  C   UNL     1      62.557  11.201   4.923  1.00  0.00     0.249 C 
HETATM   10  O   UNL     1      61.844  12.127   4.565  1.00  0.00    -0.268 OA
HETATM   11  N   UNL     1      63.291  11.274   6.074  1.00  0.00    -0.366 N 
HETATM   12  H   UNL     1      63.859  10.517   6.345  1.00  0.00     0.159 HD
HETATM   13  H   UNL     1      63.252  12.084   6.633  1.00  0.00     0.159 HD
ENDBRANCH   1   9
TORSDOF 1
ENDMDL
MODEL 3
REMARK VINA RESULT:      -5.0      2.531      4.057
REMARK  1 active torsions:
REMARK  status: ('A' for Active; 'I' for Inactive)
REMARK    1  A    between atoms: C_1  and  C_2 
REMARK       I    between atoms: C_1  and  N_9 
ROOT
HETATM    1  C   UNL     1      63.179   9.697   4.526  1.00  0.00     0.032 A 
HETATM    2  C   UNL     1      64.255   8.944   5.012  1.00  0.00     0.024 A 
HETATM    3  C   UNL     1      64.584   7.703   4.439  1.00  0.00    -0.055 A 
HETATM    4  C   UNL     1      63.814   7.216   3.363  1.00  0.00    -0.056 A 
HETATM    5  C   UNL     1      62.419   9.213   3.462  1.00  0.00     0.017 A 
HETATM    6  C   UNL     1      62.740   7.986   2.881  1.00  0.00     0.008 A 
HETATM    7  C   UNL     1      65.738   6.925   5.007  1.00  0.00     0.049 C 
HETATM    8  C   UNL     1      64.070   5.886   2.707  1.00  0.00     0.049 C 
ENDROOT
BRANCH   1   9
HETATM    9  C   UNL     1      62.798  10.991   5.145  1.00  0.00     0.249 C 
HETATM   10  O   UNL     1      61.960  11.726   4.642  1.00  0.00    -0.268 OA
HETATM   11  N   UNL     1      63.454  11.343   6.292  1.00  0.00    -0.366 N 
HETATM   12  H   UNL     1      64.124  10.735   6.682  1.00  0.00     0.159 HD
HETATM   13  H   UNL     1      63.256  12.202   6.730  1.00  0.00     0.159 HD
ENDBRANCH   1   9
TORSDOF 1
ENDMDL
MODEL 4
REMARK VINA RESULT:      -4.9      1.530      2.563
REMARK  1 active torsions:
REMARK  status: ('A' for Active; 'I' for Inactive)
REMARK    1  A    between atoms: C_1  and  C_2 
REMARK       I    between atoms: C_1  and  N_9 
ROOT
HETATM    1  C   UNL     1      64.030   8.348   4.782  1.00  0.00     0.032 A 
HETATM    2  C   UNL     1      63.331   9.552   4.631  1.00  0.00     0.024 A 
HETATM    3  C   UNL     1      62.531   9.784   3.499  1.00  0.00    -0.055 A 
HETATM    4  C   UNL     1      62.437   8.787   2.506  1.00  0.00    -0.056 A 
HETATM    5  C   UNL     1      63.935   7.364   3.798  1.00  0.00     0.017 A 
HETATM    6  C   UNL     1      63.139   7.581   2.673  1.00  0.00     0.008 A 
HETATM    7  C   UNL     1      61.813  11.100   3.375  1.00  0.00     0.049 C 
HETATM    8  C   UNL     1      61.632   8.958   1.246  1.00  0.00     0.049 C 
ENDROOT
BRANCH   1   9
HETATM    9  C   UNL     1      64.907   8.104   5.954  1.00  0.00     0.249 C 
HETATM   10  O   UNL     1      65.917   8.764   6.154  1.00  0.00    -0.268 OA
HETATM   11  N   UNL     1      64.552   7.080   6.787  1.00  0.00    -0.366 N 
HETATM   12  H   UNL     1      63.734   6.562   6.609  1.00  0.00     0.159 HD
HETATM   13  H   UNL     1      65.113   6.860   7.566  1.00  0.00     0.159 HD
ENDBRANCH   1   9
TORSDOF 1
ENDMDL
MODEL 5
REMARK VINA RESULT:      -4.7      2.716      3.988
REMARK  1 active torsions:
REMARK  status: ('A' for Active; 'I' for Inactive)
REMARK    1  A    between atoms: C_1  and  C_2 
REMARK       I    between atoms: C_1  and  N_9 
ROOT
HETATM    1  C   UNL     1      62.719   9.593   3.766  1.00  0.00     0.032 A 
HETATM    2  C   UNL     1      62.706   8.591   2.788  1.00  0.00     0.024 A 
HETATM    3  C   UNL     1      63.405   7.387   2.980  1.00  0.00    -0.055 A 
HETATM    4  C   UNL     1      64.129   7.194   4.174  1.00  0.00    -0.056 A 
HETATM    5  C   UNL     1      63.436   9.400   4.946  1.00  0.00     0.017 A 
HETATM    6  C   UNL     1      64.129   8.206   5.150  1.00  0.00     0.008 A 
HETATM    7  C   UNL     1      63.373   6.348   1.893  1.00  0.00     0.049 C 
HETATM    8  C   UNL     1      64.934   5.954   4.454  1.00  0.00     0.049 C 
ENDROOT
BRANCH   1   9
HETATM    9  C   UNL     1      62.015  10.884   3.562  1.00  0.00     0.249 C 
HETATM   10  O   UNL     1      61.908  11.710   4.456  1.00  0.00    -0.268 OA
HETATM   11  N   UNL     1      61.460  11.095   2.330  1.00  0.00    -0.366 N 
HETATM   12  H   UNL     1      61.559  10.417   1.623  1.00  0.00     0.159 HD
HETATM   13  H   UNL     1      60.961  11.924   2.149  1.00  0.00     0.159 HD
ENDBRANCH   1   9
TORSDOF 1
ENDMDL
MODEL 6
REMARK VINA RESULT:      -4.6      1.773      2.165
REMARK  1 active torsions:
REMARK  status: ('A' for Active; 'I' for Inactive)
REMARK    1  A    between atoms: C_1  and  C_2 
REMARK       I    between atoms: C_1  and  N_9 
ROOT
HETATM    1  C   UNL     1      64.094   8.360   4.739  1.00  0.00     0.032 A 
HETATM    2  C   UNL     1      64.041   7.409   3.712  1.00  0.00     0.024 A 
HETATM    3  C   UNL     1      63.174   7.576   2.618  1.00  0.00    -0.055 A 
HETATM    4  C   UNL     1      62.349   8.718   2.562  1.00  0.00    -0.056 A 
HETATM    5  C   UNL     1      63.276   9.488   4.681  1.00  0.00     0.017 A 
HETATM    6  C   UNL     1      62.416   9.668   3.596  1.00  0.00     0.008 A 
HETATM    7  C   UNL     1      63.143   6.519   1.549  1.00  0.00     0.049 C 
HETATM    8  C   UNL     1      61.367   8.966   1.449  1.00  0.00     0.049 C 
ENDROOT
BRANCH   1   9
HETATM    9  C   UNL     1      64.977   8.179   5.917  1.00  0.00     0.249 C 
HETATM   10  O   UNL     1      65.954   8.888   6.108  1.00  0.00    -0.268 OA
HETATM   11  N   UNL     1      64.667   7.154   6.768  1.00  0.00    -0.366 N 
HETATM   12  H   UNL     1      63.875   6.595   6.597  1.00  0.00     0.159 HD
HETATM   13  H   UNL     1      65.235   6.976   7.552  1.00  0.00     0.159 HD
ENDBRANCH   1   9
TORSDOF 1
ENDMDL
MODEL 7
REMARK VINA RESULT:      -4.4      2.841      4.201
REMARK  1 active torsions:
REMARK  status: ('A' for Active; 'I' for Inactive)
REMARK    1  A    between atoms: C_1  and  C_2 
REMARK       I    between atoms: C_1  and  N_9 
ROOT
HETATM    1  C   UNL     1      62.024   9.634   3.930  1.00  0.00     0.032 A 
HETATM    2  C   UNL     1      61.077   8.636   3.667  1.00  0.00     0.024 A 
HETATM    3  C   UNL     1      61.241   7.335   4.172  1.00  0.00    -0.055 A 
HETATM    4  C   UNL     1      62.379   7.037   4.950  1.00  0.00    -0.056 A 
HETATM    5  C   UNL     1      63.148   9.337   4.700  1.00  0.00     0.017 A 
HETATM    6  C   UNL     1      63.319   8.050   5.211  1.00  0.00     0.008 A 
HETATM    7  C   UNL     1      60.205   6.295   3.849  1.00  0.00     0.049 C 
HETATM    8  C   UNL     1      62.657   5.666   5.505  1.00  0.00     0.049 C 
ENDROOT
BRANCH   1   9
HETATM    9  C   UNL     1      61.882  11.002   3.373  1.00  0.00     0.249 C 
HETATM   10  O   UNL     1      62.004  11.999   4.070  1.00  0.00    -0.268 OA
HETATM   11  N   UNL     1      61.572  11.098   2.045  1.00  0.00    -0.366 N 
HETATM   12  H   UNL     1      61.479  10.282   1.501  1.00  0.00     0.159 HD
HETATM   13  H   UNL     1      61.443  11.982   1.631  1.00  0.00     0.159 HD
ENDBRANCH   1   9
TORSDOF 1
ENDMDL
MODEL 8
REMARK VINA RESULT:      -4.3      1.426      2.489
REMARK  1 active torsions:
REMARK  status: ('A' for Active; 'I' for Inactive)
REMARK    1  A    between atoms: C_1  and  C_2 
REMARK       I    between atoms: C_1  and  N_9 
ROOT
HETATM    1  C   UNL     1      62.875   7.895   4.000  1.00  0.00     0.032 A 
HETATM    2  C   UNL     1      62.819   9.062   4.772  1.00  0.00     0.024 A 
HETATM    3  C   UNL     1      62.446  10.289   4.197  1.00  0.00    -0.055 A 
HETATM    4  C   UNL     1      62.129  10.338   2.824  1.00  0.00    -0.056 A 
HETATM    5  C   UNL     1      62.561   7.946   2.643  1.00  0.00     0.017 A 
HETATM    6  C   UNL     1      62.183   9.158   2.062  1.00  0.00     0.008 A 
HETATM    7  C   UNL     1      62.416  11.517   5.064  1.00  0.00     0.049 C 
HETATM    8  C   UNL     1      61.751  11.610   2.115  1.00  0.00     0.049 C 
ENDROOT
BRANCH   1   9
HETATM    9  C   UNL     1      63.302   6.599   4.586  1.00  0.00     0.249 C 
HETATM   10  O   UNL     1      63.624   5.649   3.887  1.00  0.00    -0.268 OA
HETATM   11  N   UNL     1      63.287   6.505   5.950  1.00  0.00    -0.366 N 
HETATM   12  H   UNL     1      63.026   7.283   6.494  1.00  0.00     0.159 HD
HETATM   13  H   UNL     1      63.538   5.660   6.388  1.00  0.00     0.159 HD
ENDBRANCH   1   9
TORSDOF 1
ENDMDL
MODEL 9
REMARK VINA RESULT:      -4.3      2.997      4.815
REMARK  1 active torsions:
REMARK  status: ('A' for Active; 'I' for Inactive)
REMARK    1  A    between atoms: C_1  and  C_2 
REMARK       I    between atoms: C_1  and  N_9 
ROOT
HETATM    1  C   UNL     1      63.982   8.616   4.578  1.00  0.00     0.032 A 
HETATM    2  C   UNL     1      65.235   8.577   5.203  1.00  0.00     0.024 A 
HETATM    3  C   UNL     1      66.165   7.570   4.893  1.00  0.00    -0.055 A 
HETATM    4  C   UNL     1      65.824   6.589   3.939  1.00  0.00    -0.056 A 
HETATM    5  C   UNL     1      63.648   7.644   3.635  1.00  0.00     0.017 A 
HETATM    6  C   UNL     1      64.566   6.643   3.314  1.00  0.00     0.008 A 
HETATM    7  C   UNL     1      67.490   7.563   5.603  1.00  0.00     0.049 C 
HETATM    8  C   UNL     1      66.741   5.455   3.566  1.00  0.00     0.049 C 
ENDROOT
BRANCH   1   9
HETATM    9  C   UNL     1      62.976   9.652   4.922  1.00  0.00     0.249 C 
HETATM   10  O   UNL     1      63.021  10.271   5.975  1.00  0.00    -0.268 OA
HETATM   11  N   UNL     1      61.972   9.859   4.018  1.00  0.00    -0.366 N 
HETATM   12  H   UNL     1      61.954   9.350   3.176  1.00  0.00     0.159 HD
HETATM   13  H   UNL     1      61.265  10.518   4.209  1.00  0.00     0.159 HD
ENDBRANCH   1   9
TORSDOF 1
ENDMDL
