MODEL 1
REMARK VINA RESULT:      -4.8      0.000      0.000
REMARK  3 active torsions:
REMARK  status: ('A' for Active; 'I' for Inactive)
REMARK    1  A    between atoms: C_1  and  O_2 
REMARK    2  A    between atoms: O_2  and  C_3 
REMARK    3  A    between atoms: C_6  and  N_7 
ROOT
HETATM    1  C   UNL     1      62.179   9.206   3.181  1.00  0.00     0.075 A 
HETATM    2  C   UNL     1      63.050  10.732   5.381  1.00  0.00     0.025 A 
HETATM    3  C   UNL     1      63.057   8.661   4.118  1.00  0.00     0.039 A 
HETATM    4  C   UNL     1      61.798  10.542   3.302  1.00  0.00     0.039 A 
HETATM    5  C   UNL     1      63.500   9.423   5.201  1.00  0.00     0.031 A 
HETATM    6  C   UNL     1      62.243  11.300   4.391  1.00  0.00     0.031 A 
ENDROOT
BRANCH   1   7
HETATM    7  O   UNL     1      61.803   8.360   2.178  1.00  0.00    -0.290 OA
BRANCH   7   8
HETATM    8  C   UNL     1      61.525   8.978   0.933  1.00  0.00     0.505 C 
HETATM    9  F   UNL     1      60.794   8.100   0.200  1.00  0.00    -0.184 F 
HETATM   10  F   UNL     1      62.692   9.165   0.269  1.00  0.00    -0.184 F 
ENDBRANCH   7   8
ENDBRANCH   1   7
BRANCH   2  11
HETATM   11  N   UNL     1      63.588  11.528   6.397  1.00  0.00    -0.399 N 
HETATM   12  H   UNL     1      63.990  12.401   6.178  1.00  0.00     0.156 HD
HETATM   13  H   UNL     1      63.566  11.217   7.330  1.00  0.00     0.156 HD
ENDBRANCH   2  11
TORSDOF 3
ENDMDL
MODEL 2
REMARK VINA RESULT:      -4.5      3.722      4.506
REMARK  3 active torsions:
REMARK  status: ('A' for Active; 'I' for Inactive)
REMARK    1  A    between atoms: C_1  and  O_2 
REMARK    2  A    between atoms: O_2  and  C_3 
REMARK    3  A    between atoms: C_6  and  N_7 
ROOT
HETATM    1  C   UNL     1      63.436   9.044   5.002  1.00  0.00     0.075 A 
HETATM    2  C   UNL     1      61.964  10.590   3.166  1.00  0.00     0.025 A 
HETATM    3  C   UNL     1      63.037  10.341   5.327  1.00  0.00     0.039 A 
HETATM    4  C   UNL     1      63.166   8.548   3.728  1.00  0.00     0.039 A 
HETATM    5  C   UNL     1      62.319  11.112   4.410  1.00  0.00     0.031 A 
HETATM    6  C   UNL     1      62.444   9.325   2.814  1.00  0.00     0.031 A 
ENDROOT
BRANCH   1   7
HETATM    7  O   UNL     1      64.115   8.384   5.985  1.00  0.00    -0.290 OA
BRANCH   7   8
HETATM    8  C   UNL     1      65.443   8.011   5.661  1.00  0.00     0.505 C 
HETATM    9  F   UNL     1      65.576   6.692   5.953  1.00  0.00    -0.184 F 
HETATM   10  F   UNL     1      66.295   8.679   6.477  1.00  0.00    -0.184 F 
ENDBRANCH   7   8
ENDBRANCH   1   7
BRANCH   2  11
HETATM   11  N   UNL     1      61.352  11.405   2.208  1.00  0.00    -0.399 N 
HETATM   12  H   UNL     1      61.688  11.416   1.283  1.00  0.00     0.156 HD
HETATM   13  H   UNL     1      60.585  11.969   2.460  1.00  0.00     0.156 HD
ENDBRANCH   2  11
TORSDOF 3
ENDMDL
MODEL 3
REMARK VINA RESULT:      -4.5      3.693      4.282
REMARK  3 active torsions:
REMARK  status: ('A' for Active; 'I' for Inactive)
REMARK    1  A    between atoms: C_1  and  O_2 
REMARK    2  A    between atoms: O_2  and  C_3 
REMARK    3  A    between atoms: C_6  and  N_7 
ROOT
HETATM    1  C   UNL     1      63.399   9.237   5.062  1.00  0.00     0.075 A 
HETATM    2  C   UNL     1      62.044  10.718   3.087  1.00  0.00     0.025 A 
HETATM    3  C   UNL     1      63.125   8.672   3.816  1.00  0.00     0.039 A 
HETATM    4  C   UNL     1      62.927  10.517   5.348  1.00  0.00     0.039 A 
HETATM    5  C   UNL     1      62.440   9.402   2.843  1.00  0.00     0.031 A 
HETATM    6  C   UNL     1      62.243  11.245   4.367  1.00  0.00     0.031 A 
ENDROOT
BRANCH   1   7
HETATM    7  O   UNL     1      64.089   8.433   5.924  1.00  0.00    -0.290 OA
BRANCH   7   8
HETATM    8  C   UNL     1      63.527   7.150   6.139  1.00  0.00     0.505 C 
HETATM    9  F   UNL     1      62.317   7.333   6.726  1.00  0.00    -0.184 F 
HETATM   10  F   UNL     1      64.297   6.481   7.032  1.00  0.00    -0.184 F 
ENDBRANCH   7   8
ENDBRANCH   1   7
BRANCH   2  11
HETATM   11  N   UNL     1      61.256  11.401   2.156  1.00  0.00    -0.399 N 
HETATM   12  H   UNL     1      61.253  12.386   2.142  1.00  0.00     0.156 HD
HETATM   13  H   UNL     1      60.704  10.898   1.515  1.00  0.00     0.156 HD
ENDBRANCH   2  11
TORSDOF 3
ENDMDL
MODEL 4
REMARK VINA RESULT:      -4.1      2.540      3.097
REMARK  3 active torsions:
REMARK  status: ('A' for Active; 'I' for Inactive)
REMARK    1  A    between atoms: C_1  and  O_2 
REMARK    2  A    between atoms: O_2  and  C_3 
REMARK    3  A    between atoms: C_6  and  N_7 
ROOT
HETATM    1  C   UNL     1      62.177   9.901   3.885  1.00  0.00     0.075 A 
HETATM    2  C   UNL     1      62.396   7.348   5.054  1.00  0.00     0.025 A 
HETATM    3  C   UNL     1      63.145   9.647   4.858  1.00  0.00     0.039 A 
HETATM    4  C   UNL     1      61.267   8.898   3.553  1.00  0.00     0.039 A 
HETATM    5  C   UNL     1      63.243   8.385   5.447  1.00  0.00     0.031 A 
HETATM    6  C   UNL     1      61.373   7.635   4.145  1.00  0.00     0.031 A 
ENDROOT
BRANCH   1   7
HETATM    7  O   UNL     1      62.191  11.165   3.370  1.00  0.00    -0.290 OA
BRANCH   7   8
HETATM    8  C   UNL     1      61.669  11.292   2.059  1.00  0.00     0.505 C 
HETATM    9  F   UNL     1      62.521  10.649   1.220  1.00  0.00    -0.184 F 
HETATM   10  F   UNL     1      61.688  12.601   1.707  1.00  0.00    -0.184 F 
ENDBRANCH   7   8
ENDBRANCH   1   7
BRANCH   2  11
HETATM   11  N   UNL     1      62.419   6.124   5.730  1.00  0.00    -0.399 N 
HETATM   12  H   UNL     1      63.202   5.532   5.649  1.00  0.00     0.156 HD
HETATM   13  H   UNL     1      61.653   5.855   6.286  1.00  0.00     0.156 HD
ENDBRANCH   2  11
TORSDOF 3
ENDMDL
MODEL 5
REMARK VINA RESULT:      -4.0      1.646      2.471
REMARK  3 active torsions:
REMARK  status: ('A' for Active; 'I' for Inactive)
REMARK    1  A    between atoms: C_1  and  O_2 
REMARK    2  A    between atoms: O_2  and  C_3 
REMARK    3  A    between atoms: C_6  and  N_7 
ROOT
HETATM    1  C   UNL     1      62.908   7.903   2.980  1.00  0.00     0.075 A 
HETATM    2  C   UNL     1      64.764   8.338   5.053  1.00  0.00     0.025 A 
HETATM    3  C   UNL     1      62.763   8.988   3.845  1.00  0.00     0.039 A 
HETATM    4  C   UNL     1      63.939   6.991   3.200  1.00  0.00     0.039 A 
HETATM    5  C   UNL     1      63.676   9.194   4.882  1.00  0.00     0.031 A 
HETATM    6  C   UNL     1      64.852   7.205   4.239  1.00  0.00     0.031 A 
ENDROOT
BRANCH   1   7
HETATM    7  O   UNL     1      61.966   7.817   1.996  1.00  0.00    -0.290 OA
BRANCH   7   8
HETATM    8  C   UNL     1      61.626   9.043   1.371  1.00  0.00     0.505 C 
HETATM    9  F   UNL     1      60.510   8.823   0.631  1.00  0.00    -0.184 F 
HETATM   10  F   UNL     1      62.612   9.377   0.502  1.00  0.00    -0.184 F 
ENDBRANCH   7   8
ENDBRANCH   1   7
BRANCH   2  11
HETATM   11  N   UNL     1      65.604   8.479   6.162  1.00  0.00    -0.399 N 
HETATM   12  H   UNL     1      66.460   8.959   6.073  1.00  0.00     0.156 HD
HETATM   13  H   UNL     1      65.341   8.097   7.030  1.00  0.00     0.156 HD
ENDBRANCH   2  11
TORSDOF 3
ENDMDL
MODEL 6
REMARK VINA RESULT:      -3.7      3.479      4.316
REMARK  3 active torsions:
REMARK  status: ('A' for Active; 'I' for Inactive)
REMARK    1  A    between atoms: C_1  and  O_2 
REMARK    2  A    between atoms: O_2  and  C_3 
REMARK    3  A    between atoms: C_6  and  N_7 
ROOT
HETATM    1  C   UNL     1      63.718   8.596   4.930  1.00  0.00     0.075 A 
HETATM    2  C   UNL     1      64.924   6.663   6.586  1.00  0.00     0.025 A 
HETATM    3  C   UNL     1      65.101   8.585   5.116  1.00  0.00     0.039 A 
HETATM    4  C   UNL     1      62.930   7.687   5.634  1.00  0.00     0.039 A 
HETATM    5  C   UNL     1      65.696   7.636   5.949  1.00  0.00     0.031 A 
HETATM    6  C   UNL     1      63.533   6.736   6.465  1.00  0.00     0.031 A 
ENDROOT
BRANCH   1   7
HETATM    7  O   UNL     1      63.255   9.558   4.080  1.00  0.00    -0.290 OA
BRANCH   7   8
HETATM    8  C   UNL     1      62.462  10.568   4.681  1.00  0.00     0.505 C 
HETATM    9  F   UNL     1      62.238  11.520   3.739  1.00  0.00    -0.184 F 
HETATM   10  F   UNL     1      63.182  11.157   5.668  1.00  0.00    -0.184 F 
ENDBRANCH   7   8
ENDBRANCH   1   7
BRANCH   2  11
HETATM   11  N   UNL     1      65.510   5.792   7.510  1.00  0.00    -0.399 N 
HETATM   12  H   UNL     1      64.970   5.082   7.928  1.00  0.00     0.156 HD
HETATM   13  H   UNL     1      66.461   5.889   7.743  1.00  0.00     0.156 HD
ENDBRANCH   2  11
TORSDOF 3
ENDMDL
MODEL 7
REMARK VINA RESULT:      -3.7      3.271      4.058
REMARK  3 active torsions:
REMARK  status: ('A' for Active; 'I' for Inactive)
REMARK    1  A    between atoms: C_1  and  O_2 
REMARK    2  A    between atoms: O_2  and  C_3 
REMARK    3  A    between atoms: C_6  and  N_7 
ROOT
HETATM    1  C   UNL     1      61.596   9.059   3.590  1.00  0.00     0.075 A 
HETATM    2  C   UNL     1      62.641   6.519   2.967  1.00  0.00     0.025 A 
HETATM    3  C   UNL     1      62.973   8.834   3.612  1.00  0.00     0.039 A 
HETATM    4  C   UNL     1      60.737   7.992   3.332  1.00  0.00     0.039 A 
HETATM    5  C   UNL     1      63.489   7.571   3.317  1.00  0.00     0.031 A 
HETATM    6  C   UNL     1      61.260   6.729   3.034  1.00  0.00     0.031 A 
ENDROOT
BRANCH   1   7
HETATM    7  O   UNL     1      61.213  10.337   3.877  1.00  0.00    -0.290 OA
BRANCH   7   8
HETATM    8  C   UNL     1      61.995  11.355   3.277  1.00  0.00     0.505 C 
HETATM    9  F   UNL     1      61.950  12.436   4.096  1.00  0.00    -0.184 F 
HETATM   10  F   UNL     1      61.409  11.724   2.111  1.00  0.00    -0.184 F 
ENDBRANCH   7   8
ENDBRANCH   1   7
BRANCH   2  11
HETATM   11  N   UNL     1      63.153   5.230   2.790  1.00  0.00    -0.399 N 
HETATM   12  H   UNL     1      63.145   4.590   3.539  1.00  0.00     0.156 HD
HETATM   13  H   UNL     1      63.520   4.962   1.917  1.00  0.00     0.156 HD
ENDBRANCH   2  11
TORSDOF 3
ENDMDL
MODEL 8
REMARK VINA RESULT:      -3.7      1.974      2.536
REMARK  3 active torsions:
REMARK  status: ('A' for Active; 'I' for Inactive)
REMARK    1  A    between atoms: C_1  and  O_2 
REMARK    2  A    between atoms: O_2  and  C_3 
REMARK    3  A    between atoms: C_6  and  N_7 
ROOT
HETATM    1  C   UNL     1      61.758   8.656   3.568  1.00  0.00     0.075 A 
HETATM    2  C   UNL     1      63.074  10.474   5.269  1.00  0.00     0.025 A 
HETATM    3  C   UNL     1      61.550  10.030   3.434  1.00  0.00     0.039 A 
HETATM    4  C   UNL     1      62.565   8.188   4.604  1.00  0.00     0.039 A 
HETATM    5  C   UNL     1      62.192  10.929   4.288  1.00  0.00     0.031 A 
HETATM    6  C   UNL     1      63.208   9.095   5.454  1.00  0.00     0.031 A 
ENDROOT
BRANCH   1   7
HETATM    7  O   UNL     1      61.090   7.879   2.666  1.00  0.00    -0.290 OA
BRANCH   7   8
HETATM    8  C   UNL     1      59.960   7.193   3.175  1.00  0.00     0.505 C 
HETATM    9  F   UNL     1      60.009   5.923   2.697  1.00  0.00    -0.184 F 
HETATM   10  F   UNL     1      58.839   7.759   2.664  1.00  0.00    -0.184 F 
ENDBRANCH   7   8
ENDBRANCH   1   7
BRANCH   2  11
HETATM   11  N   UNL     1      63.620  11.368   6.195  1.00  0.00    -0.399 N 
HETATM   12  H   UNL     1      63.042  12.028   6.643  1.00  0.00     0.156 HD
HETATM   13  H   UNL     1      64.583  11.338   6.399  1.00  0.00     0.156 HD
ENDBRANCH   2  11
TORSDOF 3
ENDMDL
MODEL 9
REMARK VINA RESULT:      -3.6      4.854      5.805
REMARK  3 active torsions:
REMARK  status: ('A' for Active; 'I' for Inactive)
REMARK    1  A    between atoms: C_1  and  O_2 
REMARK    2  A    between atoms: O_2  and  C_3 
REMARK    3  A    between atoms: C_6  and  N_7 
ROOT
HETATM    1  C   UNL     1      65.911   8.011   5.883  1.00  0.00     0.075 A 
HETATM    2  C   UNL     1      67.294   5.577   6.185  1.00  0.00     0.025 A 
HETATM    3  C   UNL     1      65.459   7.046   6.784  1.00  0.00     0.039 A 
HETATM    4  C   UNL     1      67.012   7.726   5.076  1.00  0.00     0.039 A 
HETATM    5  C   UNL     1      66.137   5.833   6.922  1.00  0.00     0.031 A 
HETATM    6  C   UNL     1      67.689   6.510   5.222  1.00  0.00     0.031 A 
ENDROOT
BRANCH   1   7
HETATM    7  O   UNL     1      65.177   9.162   5.850  1.00  0.00    -0.290 OA
BRANCH   7   8
HETATM    8  C   UNL     1      64.045   9.135   4.998  1.00  0.00     0.505 C 
HETATM    9  F   UNL     1      62.979   8.767   5.755  1.00  0.00    -0.184 F 
HETATM   10  F   UNL     1      64.220   8.162   4.071  1.00  0.00    -0.184 F 
ENDBRANCH   7   8
ENDBRANCH   1   7
BRANCH   2  11
HETATM   11  N   UNL     1      67.899   4.317   6.239  1.00  0.00    -0.399 N 
HETATM   12  H   UNL     1      67.353   3.515   6.412  1.00  0.00     0.156 HD
HETATM   13  H   UNL     1      68.871   4.232   6.105  1.00  0.00     0.156 HD
ENDBRANCH   2  11
TORSDOF 3
ENDMDL
