MODEL 1
REMARK VINA RESULT:      -5.1      0.000      0.000
REMARK  2 active torsions:
REMARK  status: ('A' for Active; 'I' for Inactive)
REMARK    1  A    between atoms: N_1  and  C_2 
REMARK    2  A    between atoms: C_5  and  O_8 
ROOT
HETATM    1  C   UNL     1      62.514   8.814   3.581  1.00  0.00     0.033 A 
HETATM    2  C   UNL     1      62.412  10.016   4.301  1.00  0.00     0.065 A 
HETATM    3  C   UNL     1      62.070  11.211   3.667  1.00  0.00     0.067 A 
HETATM    4  C   UNL     1      62.260   8.877   2.201  1.00  0.00     0.029 A 
HETATM    5  C   UNL     1      61.908  10.075   1.568  1.00  0.00     0.005 A 
HETATM    6  C   UNL     1      61.813  11.248   2.306  1.00  0.00     0.036 A 
ENDROOT
BRANCH   1   7
HETATM    7  N   UNL     1      62.842   7.623   4.191  1.00  0.00    -0.377 N 
HETATM    8  C   UNL     1      61.844   6.683   4.715  1.00  0.00     0.149 C 
HETATM    9  C   UNL     1      62.087   6.444   6.212  1.00  0.00     0.187 C 
HETATM   10  O   UNL     1      63.435   6.009   6.465  1.00  0.00    -0.388 OA
HETATM   11  C   UNL     1      64.373   6.997   6.002  1.00  0.00     0.187 C 
HETATM   12  C   UNL     1      64.233   7.252   4.492  1.00  0.00     0.149 C 
ENDBRANCH   1   7
BRANCH   3  13
HETATM   13  O   UNL     1      61.979  12.383   4.363  1.00  0.00    -0.361 OA
HETATM   14  H   UNL     1      62.742  12.910   4.493  1.00  0.00     0.217 HD
ENDBRANCH   3  13
TORSDOF 2
ENDMDL
MODEL 2
REMARK VINA RESULT:      -5.1      0.909      1.223
REMARK  2 active torsions:
REMARK  status: ('A' for Active; 'I' for Inactive)
REMARK    1  A    between atoms: N_1  and  C_2 
REMARK    2  A    between atoms: C_5  and  O_8 
ROOT
HETATM    1  C   UNL     1      62.741   8.804   3.476  1.00  0.00     0.033 A 
HETATM    2  C   UNL     1      62.592   9.974   4.239  1.00  0.00     0.065 A 
HETATM    3  C   UNL     1      62.118  11.155   3.665  1.00  0.00     0.067 A 
HETATM    4  C   UNL     1      62.395   8.884   2.117  1.00  0.00     0.029 A 
HETATM    5  C   UNL     1      61.912  10.066   1.545  1.00  0.00     0.005 A 
HETATM    6  C   UNL     1      61.774  11.207   2.324  1.00  0.00     0.036 A 
ENDROOT
BRANCH   1   7
HETATM    7  N   UNL     1      63.199   7.627   4.027  1.00  0.00    -0.377 N 
HETATM    8  C   UNL     1      63.025   7.276   5.442  1.00  0.00     0.149 C 
HETATM    9  C   UNL     1      64.393   7.027   6.091  1.00  0.00     0.187 C 
HETATM   10  O   UNL     1      65.147   6.037   5.370  1.00  0.00    -0.388 OA
HETATM   11  C   UNL     1      65.356   6.460   4.012  1.00  0.00     0.187 C 
HETATM   12  C   UNL     1      64.026   6.676   3.270  1.00  0.00     0.149 C 
ENDBRANCH   1   7
BRANCH   3  13
HETATM   13  O   UNL     1      61.981  12.297   4.402  1.00  0.00    -0.361 OA
HETATM   14  H   UNL     1      61.361  12.330   5.103  1.00  0.00     0.217 HD
ENDBRANCH   3  13
TORSDOF 2
ENDMDL
MODEL 3
REMARK VINA RESULT:      -4.6      1.737      2.621
REMARK  2 active torsions:
REMARK  status: ('A' for Active; 'I' for Inactive)
REMARK    1  A    between atoms: N_1  and  C_2 
REMARK    2  A    between atoms: C_5  and  O_8 
ROOT
HETATM    1  C   UNL     1      63.197   9.160   4.627  1.00  0.00     0.033 A 
HETATM    2  C   UNL     1      62.815   8.860   3.309  1.00  0.00     0.065 A 
HETATM    3  C   UNL     1      62.130   9.790   2.527  1.00  0.00     0.067 A 
HETATM    4  C   UNL     1      62.855  10.432   5.114  1.00  0.00     0.029 A 
HETATM    5  C   UNL     1      62.175  11.367   4.325  1.00  0.00     0.005 A 
HETATM    6  C   UNL     1      61.811  11.043   3.025  1.00  0.00     0.036 A 
ENDROOT
BRANCH   1   7
HETATM    7  N   UNL     1      63.881   8.257   5.412  1.00  0.00    -0.377 N 
HETATM    8  C   UNL     1      65.347   8.187   5.471  1.00  0.00     0.149 C 
HETATM    9  C   UNL     1      65.819   6.782   5.071  1.00  0.00     0.187 C 
HETATM   10  O   UNL     1      65.189   5.766   5.872  1.00  0.00    -0.388 OA
HETATM   11  C   UNL     1      63.760   5.827   5.722  1.00  0.00     0.187 C 
HETATM   12  C   UNL     1      63.199   7.191   6.160  1.00  0.00     0.149 C 
ENDBRANCH   1   7
BRANCH   3  13
HETATM   13  O   UNL     1      61.748   9.499   1.248  1.00  0.00    -0.361 OA
HETATM   14  H   UNL     1      60.865   9.655   0.976  1.00  0.00     0.217 HD
ENDBRANCH   3  13
TORSDOF 2
ENDMDL
MODEL 4
REMARK VINA RESULT:      -4.6      1.714      2.051
REMARK  2 active torsions:
REMARK  status: ('A' for Active; 'I' for Inactive)
REMARK    1  A    between atoms: N_1  and  C_2 
REMARK    2  A    between atoms: C_5  and  O_8 
ROOT
HETATM    1  C   UNL     1      63.224   8.549   4.460  1.00  0.00     0.033 A 
HETATM    2  C   UNL     1      63.926   9.361   5.368  1.00  0.00     0.065 A 
HETATM    3  C   UNL     1      63.582  10.700   5.554  1.00  0.00     0.067 A 
HETATM    4  C   UNL     1      62.171   9.151   3.753  1.00  0.00     0.029 A 
HETATM    5  C   UNL     1      61.821  10.493   3.947  1.00  0.00     0.005 A 
HETATM    6  C   UNL     1      62.532  11.270   4.852  1.00  0.00     0.036 A 
ENDROOT
BRANCH   1   7
HETATM    7  N   UNL     1      63.543   7.222   4.270  1.00  0.00    -0.377 N 
HETATM    8  C   UNL     1      62.765   6.115   4.840  1.00  0.00     0.149 C 
HETATM    9  C   UNL     1      63.668   5.243   5.723  1.00  0.00     0.187 C 
HETATM   10  O   UNL     1      64.827   4.785   5.004  1.00  0.00    -0.388 OA
HETATM   11  C   UNL     1      65.596   5.905   4.532  1.00  0.00     0.187 C 
HETATM   12  C   UNL     1      64.776   6.802   3.588  1.00  0.00     0.149 C 
ENDBRANCH   1   7
BRANCH   3  13
HETATM   13  O   UNL     1      64.267  11.494   6.428  1.00  0.00    -0.361 OA
HETATM   14  H   UNL     1      64.619  12.313   6.139  1.00  0.00     0.217 HD
ENDBRANCH   3  13
TORSDOF 2
ENDMDL
MODEL 5
REMARK VINA RESULT:      -4.3      2.617      3.730
REMARK  2 active torsions:
REMARK  status: ('A' for Active; 'I' for Inactive)
REMARK    1  A    between atoms: N_1  and  C_2 
REMARK    2  A    between atoms: C_5  and  O_8 
ROOT
HETATM    1  C   UNL     1      65.200   7.708   4.725  1.00  0.00     0.033 A 
HETATM    2  C   UNL     1      64.405   8.825   5.033  1.00  0.00     0.065 A 
HETATM    3  C   UNL     1      63.225   9.085   4.334  1.00  0.00     0.067 A 
HETATM    4  C   UNL     1      64.752   6.876   3.686  1.00  0.00     0.029 A 
HETATM    5  C   UNL     1      63.564   7.134   2.993  1.00  0.00     0.005 A 
HETATM    6  C   UNL     1      62.798   8.245   3.319  1.00  0.00     0.036 A 
ENDROOT
BRANCH   1   7
HETATM    7  N   UNL     1      66.363   7.429   5.410  1.00  0.00    -0.377 N 
HETATM    8  C   UNL     1      67.349   6.439   4.958  1.00  0.00     0.149 C 
HETATM    9  C   UNL     1      67.553   5.373   6.042  1.00  0.00     0.187 C 
HETATM   10  O   UNL     1      67.911   5.965   7.304  1.00  0.00    -0.388 OA
HETATM   11  C   UNL     1      66.881   6.869   7.741  1.00  0.00     0.187 C 
HETATM   12  C   UNL     1      66.654   8.006   6.730  1.00  0.00     0.149 C 
ENDBRANCH   1   7
BRANCH   3  13
HETATM   13  O   UNL     1      62.455  10.175   4.624  1.00  0.00    -0.361 OA
HETATM   14  H   UNL     1      61.539  10.165   4.431  1.00  0.00     0.217 HD
ENDBRANCH   3  13
TORSDOF 2
ENDMDL
MODEL 6
REMARK VINA RESULT:      -4.3      2.219      4.827
REMARK  2 active torsions:
REMARK  status: ('A' for Active; 'I' for Inactive)
REMARK    1  A    between atoms: N_1  and  C_2 
REMARK    2  A    between atoms: C_5  and  O_8 
ROOT
HETATM    1  C   UNL     1      64.576   7.693   4.316  1.00  0.00     0.033 A 
HETATM    2  C   UNL     1      65.110   8.409   5.401  1.00  0.00     0.065 A 
HETATM    3  C   UNL     1      66.382   8.124   5.897  1.00  0.00     0.067 A 
HETATM    4  C   UNL     1      65.380   6.683   3.764  1.00  0.00     0.029 A 
HETATM    5  C   UNL     1      66.659   6.404   4.257  1.00  0.00     0.005 A 
HETATM    6  C   UNL     1      67.162   7.129   5.330  1.00  0.00     0.036 A 
ENDROOT
BRANCH   1   7
HETATM    7  N   UNL     1      63.325   7.966   3.807  1.00  0.00    -0.377 N 
HETATM    8  C   UNL     1      62.848   7.451   2.517  1.00  0.00     0.149 C 
HETATM    9  C   UNL     1      62.455   8.618   1.601  1.00  0.00     0.187 C 
HETATM   10  O   UNL     1      61.495   9.484   2.233  1.00  0.00    -0.388 OA
HETATM   11  C   UNL     1      62.037  10.023   3.452  1.00  0.00     0.187 C 
HETATM   12  C   UNL     1      62.404   8.914   4.452  1.00  0.00     0.149 C 
ENDBRANCH   1   7
BRANCH   3  13
HETATM   13  O   UNL     1      66.901   8.811   6.957  1.00  0.00    -0.361 OA
HETATM   14  H   UNL     1      67.824   8.796   7.119  1.00  0.00     0.217 HD
ENDBRANCH   3  13
TORSDOF 2
ENDMDL
MODEL 7
REMARK VINA RESULT:      -4.2      1.700      2.201
REMARK  2 active torsions:
REMARK  status: ('A' for Active; 'I' for Inactive)
REMARK    1  A    between atoms: N_1  and  C_2 
REMARK    2  A    between atoms: C_5  and  O_8 
ROOT
HETATM    1  C   UNL     1      62.923   8.576   3.642  1.00  0.00     0.033 A 
HETATM    2  C   UNL     1      62.271   9.413   2.721  1.00  0.00     0.065 A 
HETATM    3  C   UNL     1      61.934  10.726   3.053  1.00  0.00     0.067 A 
HETATM    4  C   UNL     1      63.212   9.122   4.903  1.00  0.00     0.029 A 
HETATM    5  C   UNL     1      62.881  10.441   5.231  1.00  0.00     0.005 A 
HETATM    6  C   UNL     1      62.238  11.247   4.300  1.00  0.00     0.036 A 
ENDROOT
BRANCH   1   7
HETATM    7  N   UNL     1      63.272   7.279   3.330  1.00  0.00    -0.377 N 
HETATM    8  C   UNL     1      62.297   6.253   2.939  1.00  0.00     0.149 C 
HETATM    9  C   UNL     1      62.382   5.059   3.900  1.00  0.00     0.187 C 
HETATM   10  O   UNL     1      63.722   4.540   3.980  1.00  0.00    -0.388 OA
HETATM   11  C   UNL     1      64.625   5.561   4.440  1.00  0.00     0.187 C 
HETATM   12  C   UNL     1      64.643   6.774   3.494  1.00  0.00     0.149 C 
ENDBRANCH   1   7
BRANCH   3  13
HETATM   13  O   UNL     1      61.292  11.540   2.164  1.00  0.00    -0.361 OA
HETATM   14  H   UNL     1      61.290  11.327   1.251  1.00  0.00     0.217 HD
ENDBRANCH   3  13
TORSDOF 2
ENDMDL
MODEL 8
REMARK VINA RESULT:      -4.1      2.380      3.070
REMARK  2 active torsions:
REMARK  status: ('A' for Active; 'I' for Inactive)
REMARK    1  A    between atoms: N_1  and  C_2 
REMARK    2  A    between atoms: C_5  and  O_8 
ROOT
HETATM    1  C   UNL     1      61.721   8.228   3.053  1.00  0.00     0.033 A 
HETATM    2  C   UNL     1      60.331   8.174   2.854  1.00  0.00     0.065 A 
HETATM    3  C   UNL     1      59.788   8.108   1.570  1.00  0.00     0.067 A 
HETATM    4  C   UNL     1      62.528   8.217   1.904  1.00  0.00     0.029 A 
HETATM    5  C   UNL     1      61.982   8.142   0.618  1.00  0.00     0.005 A 
HETATM    6  C   UNL     1      60.604   8.089   0.451  1.00  0.00     0.036 A 
ENDROOT
BRANCH   1   7
HETATM    7  N   UNL     1      62.275   8.284   4.313  1.00  0.00    -0.377 N 
HETATM    8  C   UNL     1      63.180   9.355   4.751  1.00  0.00     0.149 C 
HETATM    9  C   UNL     1      64.519   8.757   5.201  1.00  0.00     0.187 C 
HETATM   10  O   UNL     1      64.335   7.749   6.211  1.00  0.00    -0.388 OA
HETATM   11  C   UNL     1      63.505   6.686   5.710  1.00  0.00     0.187 C 
HETATM   12  C   UNL     1      62.116   7.197   5.290  1.00  0.00     0.149 C 
ENDBRANCH   1   7
BRANCH   3  13
HETATM   13  O   UNL     1      58.437   8.065   1.372  1.00  0.00    -0.361 OA
HETATM   14  H   UNL     1      58.080   7.526   0.694  1.00  0.00     0.217 HD
ENDBRANCH   3  13
TORSDOF 2
ENDMDL
MODEL 9
REMARK VINA RESULT:      -4.1      2.478      5.736
REMARK  2 active torsions:
REMARK  status: ('A' for Active; 'I' for Inactive)
REMARK    1  A    between atoms: N_1  and  C_2 
REMARK    2  A    between atoms: C_5  and  O_8 
ROOT
HETATM    1  C   UNL     1      65.275   7.089   6.165  1.00  0.00     0.033 A 
HETATM    2  C   UNL     1      65.307   6.240   7.283  1.00  0.00     0.065 A 
HETATM    3  C   UNL     1      66.484   5.596   7.666  1.00  0.00     0.067 A 
HETATM    4  C   UNL     1      66.476   7.253   5.456  1.00  0.00     0.029 A 
HETATM    5  C   UNL     1      67.658   6.612   5.846  1.00  0.00     0.005 A 
HETATM    6  C   UNL     1      67.660   5.779   6.957  1.00  0.00     0.036 A 
ENDROOT
BRANCH   1   7
HETATM    7  N   UNL     1      64.124   7.741   5.777  1.00  0.00    -0.377 N 
HETATM    8  C   UNL     1      62.782   7.341   6.217  1.00  0.00     0.149 C 
HETATM    9  C   UNL     1      61.905   7.026   4.997  1.00  0.00     0.187 C 
HETATM   10  O   UNL     1      61.872   8.127   4.072  1.00  0.00    -0.388 OA
HETATM   11  C   UNL     1      63.201   8.432   3.612  1.00  0.00     0.187 C 
HETATM   12  C   UNL     1      64.132   8.817   4.774  1.00  0.00     0.149 C 
ENDBRANCH   1   7
BRANCH   3  13
HETATM   13  O   UNL     1      66.517   4.762   8.747  1.00  0.00    -0.361 OA
HETATM   14  H   UNL     1      65.917   4.888   9.455  1.00  0.00     0.217 HD
ENDBRANCH   3  13
TORSDOF 2
ENDMDL
