MODEL 1
REMARK VINA RESULT:      -4.7      0.000      0.000
REMARK  4 active torsions:
REMARK  status: ('A' for Active; 'I' for Inactive)
REMARK    1  A    between atoms: C_1  and  C_8 
REMARK    2  A    between atoms: C_2  and  O_9 
REMARK    3  A    between atoms: C_5  and  O_10 
REMARK    4  A    between atoms: N_7  and  C_8 
ROOT
HETATM    1  C   UNL     1      63.334   9.597   4.779  1.00  0.00     0.003 A 
HETATM    2  C   UNL     1      64.459   8.836   5.133  1.00  0.00     0.076 A 
HETATM    3  C   UNL     1      62.549   9.147   3.684  1.00  0.00     0.048 A 
HETATM    4  C   UNL     1      64.733   7.659   4.408  1.00  0.00     0.040 A 
HETATM    5  C   UNL     1      62.827   7.972   2.981  1.00  0.00     0.069 A 
HETATM    6  C   UNL     1      63.934   7.224   3.349  1.00  0.00     0.039 A 
ENDROOT
BRANCH   1   7
HETATM    7  C   UNL     1      62.867  10.880   5.417  1.00  0.00     0.271 C 
BRANCH   7   8
HETATM    8  N   UNL     1      63.858  11.427   6.334  1.00  0.00    -0.075 N 
HETATM    9  H   UNL     1      64.529  11.991   5.813  1.00  0.00     0.274 HD
HETATM   10  H   UNL     1      64.346  10.664   6.802  1.00  0.00     0.274 HD
HETATM   11  H   UNL     1      63.392  12.009   7.030  1.00  0.00     0.274 HD
ENDBRANCH   7   8
ENDBRANCH   1   7
BRANCH   2  12
HETATM   12  O   UNL     1      65.406   9.021   6.097  1.00  0.00    -0.355 OA
HETATM   13  C   UNL     1      66.476   8.121   6.288  1.00  0.00     0.210 C 
ENDBRANCH   2  12
BRANCH   5  14
HETATM   14  O   UNL     1      61.947   7.675   1.978  1.00  0.00    -0.356 OA
HETATM   15  C   UNL     1      61.520   8.755   1.157  1.00  0.00     0.210 C 
ENDBRANCH   5  14
TORSDOF 4
ENDMDL
MODEL 2
REMARK VINA RESULT:      -4.3      1.555      4.226
REMARK  4 active torsions:
REMARK  status: ('A' for Active; 'I' for Inactive)
REMARK    1  A    between atoms: C_1  and  C_8 
REMARK    2  A    between atoms: C_2  and  O_9 
REMARK    3  A    between atoms: C_5  and  O_10 
REMARK    4  A    between atoms: N_7  and  C_8 
ROOT
HETATM    1  C   UNL     1      62.816   9.428   3.908  1.00  0.00     0.003 A 
HETATM    2  C   UNL     1      62.829   8.263   3.124  1.00  0.00     0.076 A 
HETATM    3  C   UNL     1      63.786   9.542   4.939  1.00  0.00     0.048 A 
HETATM    4  C   UNL     1      63.812   7.287   3.381  1.00  0.00     0.040 A 
HETATM    5  C   UNL     1      64.762   8.571   5.176  1.00  0.00     0.069 A 
HETATM    6  C   UNL     1      64.770   7.431   4.388  1.00  0.00     0.039 A 
ENDROOT
BRANCH   1   7
HETATM    7  C   UNL     1      61.856  10.584   3.801  1.00  0.00     0.271 C 
BRANCH   7   8
HETATM    8  N   UNL     1      61.528  10.897   2.417  1.00  0.00    -0.075 N 
HETATM    9  H   UNL     1      60.531  11.098   2.341  1.00  0.00     0.274 HD
HETATM   10  H   UNL     1      61.760  10.101   1.824  1.00  0.00     0.274 HD
HETATM   11  H   UNL     1      62.063  11.711   2.116  1.00  0.00     0.274 HD
ENDBRANCH   7   8
ENDBRANCH   1   7
BRANCH   2  12
HETATM   12  O   UNL     1      62.024   7.855   2.101  1.00  0.00    -0.355 OA
HETATM   13  C   UNL     1      60.742   7.305   2.320  1.00  0.00     0.210 C 
ENDBRANCH   2  12
BRANCH   5  14
HETATM   14  O   UNL     1      65.634   8.860   6.187  1.00  0.00    -0.356 OA
HETATM   15  C   UNL     1      66.786   8.034   6.299  1.00  0.00     0.210 C 
ENDBRANCH   5  14
TORSDOF 4
ENDMDL
MODEL 3
REMARK VINA RESULT:      -4.1      1.426      3.767
REMARK  4 active torsions:
REMARK  status: ('A' for Active; 'I' for Inactive)
REMARK    1  A    between atoms: C_1  and  C_8 
REMARK    2  A    between atoms: C_2  and  O_9 
REMARK    3  A    between atoms: C_5  and  O_10 
REMARK    4  A    between atoms: N_7  and  C_8 
ROOT
HETATM    1  C   UNL     1      62.993   9.804   4.560  1.00  0.00     0.003 A 
HETATM    2  C   UNL     1      62.424   9.532   3.306  1.00  0.00     0.076 A 
HETATM    3  C   UNL     1      63.880   8.839   5.106  1.00  0.00     0.048 A 
HETATM    4  C   UNL     1      62.779   8.339   2.648  1.00  0.00     0.040 A 
HETATM    5  C   UNL     1      64.232   7.664   4.437  1.00  0.00     0.069 A 
HETATM    6  C   UNL     1      63.671   7.414   3.195  1.00  0.00     0.039 A 
ENDROOT
BRANCH   1   7
HETATM    7  C   UNL     1      62.748  11.012   5.427  1.00  0.00     0.271 C 
BRANCH   7   8
HETATM    8  N   UNL     1      63.899  11.326   6.265  1.00  0.00    -0.075 N 
HETATM    9  H   UNL     1      63.996  10.614   6.989  1.00  0.00     0.274 HD
HETATM   10  H   UNL     1      63.763  12.237   6.701  1.00  0.00     0.274 HD
HETATM   11  H   UNL     1      64.741  11.346   5.691  1.00  0.00     0.274 HD
ENDBRANCH   7   8
ENDBRANCH   1   7
BRANCH   2  12
HETATM   12  O   UNL     1      61.532  10.234   2.550  1.00  0.00    -0.355 OA
HETATM   13  C   UNL     1      61.819  11.517   2.037  1.00  0.00     0.210 C 
ENDBRANCH   2  12
BRANCH   5  14
HETATM   14  O   UNL     1      65.123   6.865   5.097  1.00  0.00    -0.356 OA
HETATM   15  C   UNL     1      65.531   7.291   6.392  1.00  0.00     0.210 C 
ENDBRANCH   5  14
TORSDOF 4
ENDMDL
MODEL 4
REMARK VINA RESULT:      -3.8      1.953      3.014
REMARK  4 active torsions:
REMARK  status: ('A' for Active; 'I' for Inactive)
REMARK    1  A    between atoms: C_1  and  C_8 
REMARK    2  A    between atoms: C_2  and  O_9 
REMARK    3  A    between atoms: C_5  and  O_10 
REMARK    4  A    between atoms: N_7  and  C_8 
ROOT
HETATM    1  C   UNL     1      63.181   8.392   3.882  1.00  0.00     0.003 A 
HETATM    2  C   UNL     1      62.825   9.605   4.492  1.00  0.00     0.076 A 
HETATM    3  C   UNL     1      62.807   8.199   2.526  1.00  0.00     0.048 A 
HETATM    4  C   UNL     1      62.143  10.571   3.726  1.00  0.00     0.040 A 
HETATM    5  C   UNL     1      62.140   9.171   1.775  1.00  0.00     0.069 A 
HETATM    6  C   UNL     1      61.805  10.368   2.386  1.00  0.00     0.039 A 
ENDROOT
BRANCH   1   7
HETATM    7  C   UNL     1      63.905   7.233   4.518  1.00  0.00     0.271 C 
BRANCH   7   8
HETATM    8  N   UNL     1      64.912   7.675   5.473  1.00  0.00    -0.075 N 
HETATM    9  H   UNL     1      64.692   8.621   5.785  1.00  0.00     0.274 HD
HETATM   10  H   UNL     1      65.830   7.668   5.028  1.00  0.00     0.274 HD
HETATM   11  H   UNL     1      64.919   7.045   6.275  1.00  0.00     0.274 HD
ENDBRANCH   7   8
ENDBRANCH   1   7
BRANCH   2  12
HETATM   12  O   UNL     1      63.011  10.065   5.763  1.00  0.00    -0.355 OA
HETATM   13  C   UNL     1      63.084  11.441   6.066  1.00  0.00     0.210 C 
ENDBRANCH   2  12
BRANCH   5  14
HETATM   14  O   UNL     1      61.888   8.828   0.476  1.00  0.00    -0.356 OA
HETATM   15  C   UNL     1      61.066   7.687   0.261  1.00  0.00     0.210 C 
ENDBRANCH   5  14
TORSDOF 4
ENDMDL
MODEL 5
REMARK VINA RESULT:      -3.7      2.306      3.617
REMARK  4 active torsions:
REMARK  status: ('A' for Active; 'I' for Inactive)
REMARK    1  A    between atoms: C_1  and  C_8 
REMARK    2  A    between atoms: C_2  and  O_9 
REMARK    3  A    between atoms: C_5  and  O_10 
REMARK    4  A    between atoms: N_7  and  C_8 
ROOT
HETATM    1  C   UNL     1      62.717   8.906   3.756  1.00  0.00     0.003 A 
HETATM    2  C   UNL     1      62.198   9.861   2.868  1.00  0.00     0.076 A 
HETATM    3  C   UNL     1      62.990   7.609   3.246  1.00  0.00     0.048 A 
HETATM    4  C   UNL     1      62.000   9.495   1.522  1.00  0.00     0.040 A 
HETATM    5  C   UNL     1      62.798   7.263   1.906  1.00  0.00     0.069 A 
HETATM    6  C   UNL     1      62.295   8.219   1.038  1.00  0.00     0.039 A 
ENDROOT
BRANCH   1   7
HETATM    7  C   UNL     1      63.000   9.089   5.225  1.00  0.00     0.271 C 
BRANCH   7   8
HETATM    8  N   UNL     1      64.424   9.240   5.492  1.00  0.00    -0.075 N 
HETATM    9  H   UNL     1      64.567  10.008   6.148  1.00  0.00     0.274 HD
HETATM   10  H   UNL     1      64.915   9.442   4.621  1.00  0.00     0.274 HD
HETATM   11  H   UNL     1      64.788   8.376   5.895  1.00  0.00     0.274 HD
ENDBRANCH   7   8
ENDBRANCH   1   7
BRANCH   2  12
HETATM   12  O   UNL     1      61.814  11.156   3.060  1.00  0.00    -0.355 OA
HETATM   13  C   UNL     1      61.630  12.057   1.990  1.00  0.00     0.210 C 
ENDBRANCH   2  12
BRANCH   5  14
HETATM   14  O   UNL     1      63.143   5.981   1.583  1.00  0.00    -0.356 OA
HETATM   15  C   UNL     1      63.317   5.690   0.202  1.00  0.00     0.210 C 
ENDBRANCH   5  14
TORSDOF 4
ENDMDL
MODEL 6
REMARK VINA RESULT:      -3.7      2.510      3.468
REMARK  4 active torsions:
REMARK  status: ('A' for Active; 'I' for Inactive)
REMARK    1  A    between atoms: C_1  and  C_8 
REMARK    2  A    between atoms: C_2  and  O_9 
REMARK    3  A    between atoms: C_5  and  O_10 
REMARK    4  A    between atoms: N_7  and  C_8 
ROOT
HETATM    1  C   UNL     1      65.683   7.831   5.234  1.00  0.00     0.003 A 
HETATM    2  C   UNL     1      65.653   6.760   4.327  1.00  0.00     0.076 A 
HETATM    3  C   UNL     1      64.644   8.796   5.152  1.00  0.00     0.048 A 
HETATM    4  C   UNL     1      64.587   6.683   3.409  1.00  0.00     0.040 A 
HETATM    5  C   UNL     1      63.588   8.701   4.242  1.00  0.00     0.069 A 
HETATM    6  C   UNL     1      63.564   7.633   3.361  1.00  0.00     0.039 A 
ENDROOT
BRANCH   1   7
HETATM    7  C   UNL     1      66.726   8.101   6.288  1.00  0.00     0.271 C 
BRANCH   7   8
HETATM    8  N   UNL     1      68.075   7.847   5.800  1.00  0.00    -0.075 N 
HETATM    9  H   UNL     1      68.588   8.726   5.748  1.00  0.00     0.274 HD
HETATM   10  H   UNL     1      68.028   7.426   4.872  1.00  0.00     0.274 HD
HETATM   11  H   UNL     1      68.553   7.210   6.438  1.00  0.00     0.274 HD
ENDBRANCH   7   8
ENDBRANCH   1   7
BRANCH   2  12
HETATM   12  O   UNL     1      66.506   5.713   4.140  1.00  0.00    -0.355 OA
HETATM   13  C   UNL     1      66.525   4.589   4.994  1.00  0.00     0.210 C 
ENDBRANCH   2  12
BRANCH   5  14
HETATM   14  O   UNL     1      62.660   9.701   4.326  1.00  0.00    -0.356 OA
HETATM   15  C   UNL     1      62.870  10.691   5.325  1.00  0.00     0.210 C 
ENDBRANCH   5  14
TORSDOF 4
ENDMDL
MODEL 7
REMARK VINA RESULT:      -3.6      2.101      4.320
REMARK  4 active torsions:
REMARK  status: ('A' for Active; 'I' for Inactive)
REMARK    1  A    between atoms: C_1  and  C_8 
REMARK    2  A    between atoms: C_2  and  O_9 
REMARK    3  A    between atoms: C_5  and  O_10 
REMARK    4  A    between atoms: N_7  and  C_8 
ROOT
HETATM    1  C   UNL     1      62.324   8.739   3.720  1.00  0.00     0.003 A 
HETATM    2  C   UNL     1      61.652   7.642   4.282  1.00  0.00     0.076 A 
HETATM    3  C   UNL     1      63.547   9.143   4.318  1.00  0.00     0.048 A 
HETATM    4  C   UNL     1      62.234   6.988   5.386  1.00  0.00     0.040 A 
HETATM    5  C   UNL     1      64.117   8.478   5.407  1.00  0.00     0.069 A 
HETATM    6  C   UNL     1      63.449   7.390   5.945  1.00  0.00     0.039 A 
ENDROOT
BRANCH   1   7
HETATM    7  C   UNL     1      61.878   9.574   2.548  1.00  0.00     0.271 C 
BRANCH   7   8
HETATM    8  N   UNL     1      61.613  10.955   2.930  1.00  0.00    -0.075 N 
HETATM    9  H   UNL     1      60.766  10.993   3.498  1.00  0.00     0.274 HD
HETATM   10  H   UNL     1      61.486  11.522   2.092  1.00  0.00     0.274 HD
HETATM   11  H   UNL     1      62.400  11.316   3.468  1.00  0.00     0.274 HD
ENDBRANCH   7   8
ENDBRANCH   1   7
BRANCH   2  12
HETATM   12  O   UNL     1      60.468   7.047   3.959  1.00  0.00    -0.355 OA
HETATM   13  C   UNL     1      60.320   5.645   3.894  1.00  0.00     0.210 C 
ENDBRANCH   2  12
BRANCH   5  14
HETATM   14  O   UNL     1      65.313   8.985   5.833  1.00  0.00    -0.356 OA
HETATM   15  C   UNL     1      66.318   8.044   6.191  1.00  0.00     0.210 C 
ENDBRANCH   5  14
TORSDOF 4
ENDMDL
MODEL 8
REMARK VINA RESULT:      -3.5      3.429      5.303
REMARK  4 active torsions:
REMARK  status: ('A' for Active; 'I' for Inactive)
REMARK    1  A    between atoms: C_1  and  C_8 
REMARK    2  A    between atoms: C_2  and  O_9 
REMARK    3  A    between atoms: C_5  and  O_10 
REMARK    4  A    between atoms: N_7  and  C_8 
ROOT
HETATM    1  C   UNL     1      61.036   8.051   2.985  1.00  0.00     0.003 A 
HETATM    2  C   UNL     1      61.163   8.001   1.588  1.00  0.00     0.076 A 
HETATM    3  C   UNL     1      61.467   9.232   3.646  1.00  0.00     0.048 A 
HETATM    4  C   UNL     1      61.683   9.125   0.917  1.00  0.00     0.040 A 
HETATM    5  C   UNL     1      61.972  10.343   2.966  1.00  0.00     0.069 A 
HETATM    6  C   UNL     1      62.082  10.284   1.586  1.00  0.00     0.039 A 
ENDROOT
BRANCH   1   7
HETATM    7  C   UNL     1      60.510   6.967   3.890  1.00  0.00     0.271 C 
BRANCH   7   8
HETATM    8  N   UNL     1      60.754   5.637   3.348  1.00  0.00    -0.075 N 
HETATM    9  H   UNL     1      59.863   5.165   3.194  1.00  0.00     0.274 HD
HETATM   10  H   UNL     1      61.314   5.098   4.008  1.00  0.00     0.274 HD
HETATM   11  H   UNL     1      61.254   5.717   2.463  1.00  0.00     0.274 HD
ENDBRANCH   7   8
ENDBRANCH   1   7
BRANCH   2  12
HETATM   12  O   UNL     1      60.872   7.015   0.691  1.00  0.00    -0.355 OA
HETATM   13  C   UNL     1      59.566   6.799   0.203  1.00  0.00     0.210 C 
ENDBRANCH   2  12
BRANCH   5  14
HETATM   14  O   UNL     1      62.308  11.405   3.759  1.00  0.00    -0.356 OA
HETATM   15  C   UNL     1      62.586  11.123   5.125  1.00  0.00     0.210 C 
ENDBRANCH   5  14
TORSDOF 4
ENDMDL
MODEL 9
REMARK VINA RESULT:      -3.5      2.673      3.091
REMARK  4 active torsions:
REMARK  status: ('A' for Active; 'I' for Inactive)
REMARK    1  A    between atoms: C_1  and  C_8 
REMARK    2  A    between atoms: C_2  and  O_9 
REMARK    3  A    between atoms: C_5  and  O_10 
REMARK    4  A    between atoms: N_7  and  C_8 
ROOT
HETATM    1  C   UNL     1      61.787   7.082   5.002  1.00  0.00     0.003 A 
HETATM    2  C   UNL     1      62.845   7.709   5.679  1.00  0.00     0.076 A 
HETATM    3  C   UNL     1      61.309   7.693   3.812  1.00  0.00     0.048 A 
HETATM    4  C   UNL     1      63.392   8.887   5.133  1.00  0.00     0.040 A 
HETATM    5  C   UNL     1      61.869   8.857   3.277  1.00  0.00     0.069 A 
HETATM    6  C   UNL     1      62.920   9.458   3.949  1.00  0.00     0.039 A 
ENDROOT
BRANCH   1   7
HETATM    7  C   UNL     1      61.063   5.826   5.412  1.00  0.00     0.271 C 
BRANCH   7   8
HETATM    8  N   UNL     1      60.892   5.740   6.856  1.00  0.00    -0.075 N 
HETATM    9  H   UNL     1      60.831   4.760   7.133  1.00  0.00     0.274 HD
HETATM   10  H   UNL     1      60.037   6.223   7.128  1.00  0.00     0.274 HD
HETATM   11  H   UNL     1      61.690   6.175   7.319  1.00  0.00     0.274 HD
ENDBRANCH   7   8
ENDBRANCH   1   7
BRANCH   2  12
HETATM   12  O   UNL     1      63.489   7.390   6.838  1.00  0.00    -0.355 OA
HETATM   13  C   UNL     1      64.696   6.658   6.857  1.00  0.00     0.210 C 
ENDBRANCH   2  12
BRANCH   5  14
HETATM   14  O   UNL     1      61.305   9.287   2.109  1.00  0.00    -0.356 OA
HETATM   15  C   UNL     1      61.982   8.947   0.905  1.00  0.00     0.210 C 
ENDBRANCH   5  14
TORSDOF 4
ENDMDL
