MODEL 1
REMARK VINA RESULT:      -4.9      0.000      0.000
REMARK  2 active torsions:
REMARK  status: ('A' for Active; 'I' for Inactive)
REMARK    1  A    between atoms: C_6  and  C_9 
REMARK    2  A    between atoms: N_8  and  C_9 
ROOT
HETATM    1  C   UNL     1      62.803   8.599   2.901  1.00  0.00     0.040 A 
HETATM    2  C   UNL     1      62.248   9.241   1.783  1.00  0.00    -0.040 A 
HETATM    3  C   UNL     1      62.907   9.262   4.128  1.00  0.00     0.033 A 
HETATM    4  C   UNL     1      61.797  10.560   1.926  1.00  0.00     0.009 A 
HETATM    5 CL   UNL     1      63.379   6.971   2.813  1.00  0.00    -0.084 Cl
HETATM    6  C   UNL     1      62.460  10.582   4.268  1.00  0.00    -0.031 A 
HETATM    7  C   UNL     1      61.899  11.221   3.154  1.00  0.00     0.009 A 
HETATM    8  C   UNL     1      62.129   8.556   0.451  1.00  0.00     0.050 C 
ENDROOT
BRANCH   6   9
HETATM    9  C   UNL     1      62.568  11.293   5.591  1.00  0.00     0.268 C 
BRANCH   9  10
HETATM   10  N   UNL     1      63.919  11.209   6.132  1.00  0.00    -0.075 N 
HETATM   11  H   UNL     1      64.583  11.066   5.370  1.00  0.00     0.274 HD
HETATM   12  H   UNL     1      63.977  10.428   6.785  1.00  0.00     0.274 HD
HETATM   13  H   UNL     1      64.145  12.077   6.619  1.00  0.00     0.274 HD
ENDBRANCH   9  10
ENDBRANCH   6   9
TORSDOF 2
ENDMDL
MODEL 2
REMARK VINA RESULT:      -4.6      1.761      2.660
REMARK  2 active torsions:
REMARK  status: ('A' for Active; 'I' for Inactive)
REMARK    1  A    between atoms: C_6  and  C_9 
REMARK    2  A    between atoms: N_8  and  C_9 
ROOT
HETATM    1  C   UNL     1      62.278   9.456   2.482  1.00  0.00     0.040 A 
HETATM    2  C   UNL     1      62.074  10.769   2.933  1.00  0.00    -0.040 A 
HETATM    3  C   UNL     1      62.721   8.459   3.356  1.00  0.00     0.033 A 
HETATM    4  C   UNL     1      62.321  11.056   4.283  1.00  0.00     0.009 A 
HETATM    5 CL   UNL     1      61.994   9.014   0.834  1.00  0.00    -0.084 Cl
HETATM    6  C   UNL     1      62.972   8.749   4.703  1.00  0.00    -0.031 A 
HETATM    7  C   UNL     1      62.761  10.058   5.157  1.00  0.00     0.009 A 
HETATM    8  C   UNL     1      61.605  11.862   2.016  1.00  0.00     0.050 C 
ENDROOT
BRANCH   6   9
HETATM    9  C   UNL     1      63.443   7.673   5.646  1.00  0.00     0.268 C 
BRANCH   9  10
HETATM   10  N   UNL     1      64.758   7.984   6.195  1.00  0.00    -0.075 N 
HETATM   11  H   UNL     1      65.449   7.984   5.444  1.00  0.00     0.274 HD
HETATM   12  H   UNL     1      65.011   7.283   6.890  1.00  0.00     0.274 HD
HETATM   13  H   UNL     1      64.735   8.905   6.633  1.00  0.00     0.274 HD
ENDBRANCH   9  10
ENDBRANCH   6   9
TORSDOF 2
ENDMDL
MODEL 3
REMARK VINA RESULT:      -4.3      1.550      2.274
REMARK  2 active torsions:
REMARK  status: ('A' for Active; 'I' for Inactive)
REMARK    1  A    between atoms: C_6  and  C_9 
REMARK    2  A    between atoms: N_8  and  C_9 
ROOT
HETATM    1  C   UNL     1      62.246   8.769   2.266  1.00  0.00     0.040 A 
HETATM    2  C   UNL     1      63.060   7.716   2.709  1.00  0.00    -0.040 A 
HETATM    3  C   UNL     1      62.083   9.922   3.040  1.00  0.00     0.033 A 
HETATM    4  C   UNL     1      63.710   7.848   3.944  1.00  0.00     0.009 A 
HETATM    5 CL   UNL     1      61.412   8.690   0.754  1.00  0.00    -0.084 Cl
HETATM    6  C   UNL     1      62.728  10.051   4.277  1.00  0.00    -0.031 A 
HETATM    7  C   UNL     1      63.549   9.003   4.716  1.00  0.00     0.009 A 
HETATM    8  C   UNL     1      63.249   6.463   1.902  1.00  0.00     0.050 C 
ENDROOT
BRANCH   6   9
HETATM    9  C   UNL     1      62.556  11.295   5.108  1.00  0.00     0.268 C 
BRANCH   9  10
HETATM   10  N   UNL     1      63.451  11.294   6.259  1.00  0.00    -0.075 N 
HETATM   11  H   UNL     1      63.026  10.761   7.019  1.00  0.00     0.274 HD
HETATM   12  H   UNL     1      63.611  12.253   6.566  1.00  0.00     0.274 HD
HETATM   13  H   UNL     1      64.340  10.866   6.000  1.00  0.00     0.274 HD
ENDBRANCH   9  10
ENDBRANCH   6   9
TORSDOF 2
ENDMDL
MODEL 4
REMARK VINA RESULT:      -4.3      2.479      3.510
REMARK  2 active torsions:
REMARK  status: ('A' for Active; 'I' for Inactive)
REMARK    1  A    between atoms: C_6  and  C_9 
REMARK    2  A    between atoms: N_8  and  C_9 
ROOT
HETATM    1  C   UNL     1      62.354  10.106   3.612  1.00  0.00     0.040 A 
HETATM    2  C   UNL     1      62.003  10.494   2.310  1.00  0.00    -0.040 A 
HETATM    3  C   UNL     1      62.665   8.773   3.902  1.00  0.00     0.033 A 
HETATM    4  C   UNL     1      61.974   9.517   1.306  1.00  0.00     0.009 A 
HETATM    5 CL   UNL     1      62.418  11.248   4.909  1.00  0.00    -0.084 Cl
HETATM    6  C   UNL     1      62.631   7.797   2.898  1.00  0.00    -0.031 A 
HETATM    7  C   UNL     1      62.288   8.186   1.596  1.00  0.00     0.009 A 
HETATM    8  C   UNL     1      61.657  11.917   1.971  1.00  0.00     0.050 C 
ENDROOT
BRANCH   6   9
HETATM    9  C   UNL     1      62.971   6.363   3.209  1.00  0.00     0.268 C 
BRANCH   9  10
HETATM   10  N   UNL     1      63.581   6.234   4.528  1.00  0.00    -0.075 N 
HETATM   11  H   UNL     1      63.043   6.774   5.206  1.00  0.00     0.274 HD
HETATM   12  H   UNL     1      64.537   6.586   4.496  1.00  0.00     0.274 HD
HETATM   13  H   UNL     1      63.589   5.253   4.805  1.00  0.00     0.274 HD
ENDBRANCH   9  10
ENDBRANCH   6   9
TORSDOF 2
ENDMDL
MODEL 5
REMARK VINA RESULT:      -4.3      2.521      3.942
REMARK  2 active torsions:
REMARK  status: ('A' for Active; 'I' for Inactive)
REMARK    1  A    between atoms: C_6  and  C_9 
REMARK    2  A    between atoms: N_8  and  C_9 
ROOT
HETATM    1  C   UNL     1      62.930   9.150   4.094  1.00  0.00     0.040 A 
HETATM    2  C   UNL     1      62.542  10.486   4.275  1.00  0.00    -0.040 A 
HETATM    3  C   UNL     1      62.721   8.503   2.872  1.00  0.00     0.033 A 
HETATM    4  C   UNL     1      61.944  11.159   3.201  1.00  0.00     0.009 A 
HETATM    5 CL   UNL     1      63.679   8.247   5.364  1.00  0.00    -0.084 Cl
HETATM    6  C   UNL     1      62.118   9.176   1.801  1.00  0.00    -0.031 A 
HETATM    7  C   UNL     1      61.738  10.513   1.979  1.00  0.00     0.009 A 
HETATM    8  C   UNL     1      62.748  11.204   5.579  1.00  0.00     0.050 C 
ENDROOT
BRANCH   6   9
HETATM    9  C   UNL     1      61.898   8.481   0.484  1.00  0.00     0.268 C 
BRANCH   9  10
HETATM   10  N   UNL     1      60.533   7.983   0.365  1.00  0.00    -0.075 N 
HETATM   11  H   UNL     1      60.447   7.101   0.872  1.00  0.00     0.274 HD
HETATM   12  H   UNL     1      60.309   7.832  -0.618  1.00  0.00     0.274 HD
HETATM   13  H   UNL     1      59.886   8.665   0.761  1.00  0.00     0.274 HD
ENDBRANCH   9  10
ENDBRANCH   6   9
TORSDOF 2
ENDMDL
MODEL 6
REMARK VINA RESULT:      -4.0      3.027      4.389
REMARK  2 active torsions:
REMARK  status: ('A' for Active; 'I' for Inactive)
REMARK    1  A    between atoms: C_6  and  C_9 
REMARK    2  A    between atoms: N_8  and  C_9 
ROOT
HETATM    1  C   UNL     1      62.542   9.704   3.755  1.00  0.00     0.040 A 
HETATM    2  C   UNL     1      63.477   8.699   4.046  1.00  0.00    -0.040 A 
HETATM    3  C   UNL     1      61.675   9.582   2.664  1.00  0.00     0.033 A 
HETATM    4  C   UNL     1      63.519   7.568   3.219  1.00  0.00     0.009 A 
HETATM    5 CL   UNL     1      62.420  11.130   4.725  1.00  0.00    -0.084 Cl
HETATM    6  C   UNL     1      61.722   8.453   1.837  1.00  0.00    -0.031 A 
HETATM    7  C   UNL     1      62.650   7.445   2.131  1.00  0.00     0.009 A 
HETATM    8  C   UNL     1      64.424   8.806   5.207  1.00  0.00     0.050 C 
ENDROOT
BRANCH   6   9
HETATM    9  C   UNL     1      60.785   8.320   0.665  1.00  0.00     0.268 C 
BRANCH   9  10
HETATM   10  N   UNL     1      59.397   8.506   1.069  1.00  0.00    -0.075 N 
HETATM   11  H   UNL     1      58.780   8.231   0.305  1.00  0.00     0.274 HD
HETATM   12  H   UNL     1      59.237   9.487   1.298  1.00  0.00     0.274 HD
HETATM   13  H   UNL     1      59.200   7.930   1.888  1.00  0.00     0.274 HD
ENDBRANCH   9  10
ENDBRANCH   6   9
TORSDOF 2
ENDMDL
MODEL 7
REMARK VINA RESULT:      -4.0      2.410      3.233
REMARK  2 active torsions:
REMARK  status: ('A' for Active; 'I' for Inactive)
REMARK    1  A    between atoms: C_6  and  C_9 
REMARK    2  A    between atoms: N_8  and  C_9 
ROOT
HETATM    1  C   UNL     1      62.672   9.387   3.290  1.00  0.00     0.040 A 
HETATM    2  C   UNL     1      62.504   8.454   2.256  1.00  0.00    -0.040 A 
HETATM    3  C   UNL     1      63.489   9.100   4.388  1.00  0.00     0.033 A 
HETATM    4  C   UNL     1      63.177   7.228   2.348  1.00  0.00     0.009 A 
HETATM    5 CL   UNL     1      61.883  10.926   3.254  1.00  0.00    -0.084 Cl
HETATM    6  C   UNL     1      64.156   7.872   4.480  1.00  0.00    -0.031 A 
HETATM    7  C   UNL     1      63.995   6.942   3.444  1.00  0.00     0.009 A 
HETATM    8  C   UNL     1      61.628   8.732   1.067  1.00  0.00     0.050 C 
ENDROOT
BRANCH   6   9
HETATM    9  C   UNL     1      65.040   7.565   5.660  1.00  0.00     0.268 C 
BRANCH   9  10
HETATM   10  N   UNL     1      64.261   7.104   6.804  1.00  0.00    -0.075 N 
HETATM   11  H   UNL     1      63.267   7.237   6.614  1.00  0.00     0.274 HD
HETATM   12  H   UNL     1      64.523   7.638   7.632  1.00  0.00     0.274 HD
HETATM   13  H   UNL     1      64.446   6.114   6.964  1.00  0.00     0.274 HD
ENDBRANCH   9  10
ENDBRANCH   6   9
TORSDOF 2
ENDMDL
MODEL 8
REMARK VINA RESULT:      -3.6      2.906      4.186
REMARK  2 active torsions:
REMARK  status: ('A' for Active; 'I' for Inactive)
REMARK    1  A    between atoms: C_6  and  C_9 
REMARK    2  A    between atoms: N_8  and  C_9 
ROOT
HETATM    1  C   UNL     1      63.025   8.117   3.146  1.00  0.00     0.040 A 
HETATM    2  C   UNL     1      63.100   9.157   4.084  1.00  0.00    -0.040 A 
HETATM    3  C   UNL     1      63.968   7.084   3.144  1.00  0.00     0.033 A 
HETATM    4  C   UNL     1      64.141   9.135   5.023  1.00  0.00     0.009 A 
HETATM    5 CL   UNL     1      61.771   8.064   1.956  1.00  0.00    -0.084 Cl
HETATM    6  C   UNL     1      65.011   7.067   4.080  1.00  0.00    -0.031 A 
HETATM    7  C   UNL     1      65.082   8.101   5.023  1.00  0.00     0.009 A 
HETATM    8  C   UNL     1      62.105  10.282   4.106  1.00  0.00     0.050 C 
ENDROOT
BRANCH   6   9
HETATM    9  C   UNL     1      66.023   5.952   4.081  1.00  0.00     0.268 C 
BRANCH   9  10
HETATM   10  N   UNL     1      67.384   6.468   4.005  1.00  0.00    -0.075 N 
HETATM   11  H   UNL     1      67.797   6.210   3.109  1.00  0.00     0.274 HD
HETATM   12  H   UNL     1      67.941   6.072   4.762  1.00  0.00     0.274 HD
HETATM   13  H   UNL     1      67.369   7.485   4.091  1.00  0.00     0.274 HD
ENDBRANCH   9  10
ENDBRANCH   6   9
TORSDOF 2
ENDMDL
MODEL 9
REMARK VINA RESULT:      -3.6      2.695      3.919
REMARK  2 active torsions:
REMARK  status: ('A' for Active; 'I' for Inactive)
REMARK    1  A    between atoms: C_6  and  C_9 
REMARK    2  A    between atoms: N_8  and  C_9 
ROOT
HETATM    1  C   UNL     1      63.526   7.531   3.124  1.00  0.00     0.040 A 
HETATM    2  C   UNL     1      63.528   8.606   4.026  1.00  0.00    -0.040 A 
HETATM    3  C   UNL     1      62.601   7.477   2.077  1.00  0.00     0.033 A 
HETATM    4  C   UNL     1      62.583   9.625   3.852  1.00  0.00     0.009 A 
HETATM    5 CL   UNL     1      64.661   6.233   3.263  1.00  0.00    -0.084 Cl
HETATM    6  C   UNL     1      61.653   8.495   1.908  1.00  0.00    -0.031 A 
HETATM    7  C   UNL     1      61.660   9.572   2.804  1.00  0.00     0.009 A 
HETATM    8  C   UNL     1      64.507   8.687   5.164  1.00  0.00     0.050 C 
ENDROOT
BRANCH   6   9
HETATM    9  C   UNL     1      60.659   8.439   0.778  1.00  0.00     0.268 C 
BRANCH   9  10
HETATM   10  N   UNL     1      59.295   8.307   1.274  1.00  0.00    -0.075 N 
HETATM   11  H   UNL     1      58.686   8.955   0.772  1.00  0.00     0.274 HD
HETATM   12  H   UNL     1      59.272   8.523   2.270  1.00  0.00     0.274 HD
HETATM   13  H   UNL     1      58.969   7.352   1.125  1.00  0.00     0.274 HD
ENDBRANCH   9  10
ENDBRANCH   6   9
TORSDOF 2
ENDMDL
