MODEL 1
REMARK VINA RESULT:      -4.7      0.000      0.000
REMARK  3 active torsions:
REMARK  status: ('A' for Active; 'I' for Inactive)
REMARK    1  A    between atoms: C_1  and  C_2 
REMARK    2  A    between atoms: C_10  and  C_12 
REMARK    3  A    between atoms: N_11  and  C_12 
ROOT
HETATM    1  C   UNL     1      62.520   8.937   2.666  1.00  0.00     0.047 A 
HETATM    2  C   UNL     1      62.557   9.632   3.883  1.00  0.00     0.017 A 
HETATM    3  C   UNL     1      63.046   7.637   2.616  1.00  0.00     0.017 A 
HETATM    4  C   UNL     1      63.600   7.051   3.756  1.00  0.00     0.009 A 
HETATM    5  C   UNL     1      63.112   9.045   5.023  1.00  0.00     0.009 A 
HETATM    6  C   UNL     1      63.645   7.750   4.971  1.00  0.00    -0.033 A 
ENDROOT
BRANCH   6   7
HETATM    7  C   UNL     1      64.288   7.127   6.183  1.00  0.00     0.268 C 
BRANCH   7   8
HETATM    8  N   UNL     1      65.513   7.820   6.564  1.00  0.00    -0.075 N 
HETATM    9  H   UNL     1      66.013   7.267   7.260  1.00  0.00     0.274 HD
HETATM   10  H   UNL     1      65.279   8.731   6.958  1.00  0.00     0.274 HD
HETATM   11  H   UNL     1      66.102   7.946   5.742  1.00  0.00     0.274 HD
ENDBRANCH   7   8
ENDBRANCH   6   7
BRANCH   1  12
HETATM   12  C   UNL     1      61.935   9.559   1.424  1.00  0.00     0.417 C 
HETATM   13  F   UNL     1      60.648   9.184   1.177  1.00  0.00    -0.166 F 
HETATM   14  F   UNL     1      62.635   9.241   0.299  1.00  0.00    -0.166 F 
HETATM   15  F   UNL     1      61.919  10.921   1.480  1.00  0.00    -0.166 F 
ENDBRANCH   1  12
TORSDOF 3
ENDMDL
MODEL 2
REMARK VINA RESULT:      -4.4      1.990      2.645
REMARK  3 active torsions:
REMARK  status: ('A' for Active; 'I' for Inactive)
REMARK    1  A    between atoms: C_1  and  C_2 
REMARK    2  A    between atoms: C_10  and  C_12 
REMARK    3  A    between atoms: N_11  and  C_12 
ROOT
HETATM    1  C   UNL     1      63.190   8.988   3.971  1.00  0.00     0.047 A 
HETATM    2  C   UNL     1      63.246   7.865   3.135  1.00  0.00     0.017 A 
HETATM    3  C   UNL     1      64.139   9.114   4.997  1.00  0.00     0.017 A 
HETATM    4  C   UNL     1      65.117   8.135   5.182  1.00  0.00     0.009 A 
HETATM    5  C   UNL     1      64.226   6.885   3.322  1.00  0.00     0.009 A 
HETATM    6  C   UNL     1      65.169   7.007   4.351  1.00  0.00    -0.033 A 
ENDROOT
BRANCH   6   7
HETATM    7  C   UNL     1      66.199   5.933   4.589  1.00  0.00     0.268 C 
BRANCH   7   8
HETATM    8  N   UNL     1      67.527   6.351   4.155  1.00  0.00    -0.075 N 
HETATM    9  H   UNL     1      67.557   6.384   3.136  1.00  0.00     0.274 HD
HETATM   10  H   UNL     1      68.221   5.683   4.494  1.00  0.00     0.274 HD
HETATM   11  H   UNL     1      67.733   7.276   4.532  1.00  0.00     0.274 HD
ENDBRANCH   7   8
ENDBRANCH   6   7
BRANCH   1  12
HETATM   12  C   UNL     1      62.133  10.048   3.791  1.00  0.00     0.417 C 
HETATM   13  F   UNL     1      60.859   9.571   3.876  1.00  0.00    -0.166 F 
HETATM   14  F   UNL     1      62.215  10.668   2.580  1.00  0.00    -0.166 F 
HETATM   15  F   UNL     1      62.221  11.038   4.724  1.00  0.00    -0.166 F 
ENDBRANCH   1  12
TORSDOF 3
ENDMDL
MODEL 3
REMARK VINA RESULT:      -4.2      4.093      5.172
REMARK  3 active torsions:
REMARK  status: ('A' for Active; 'I' for Inactive)
REMARK    1  A    between atoms: C_1  and  C_2 
REMARK    2  A    between atoms: C_10  and  C_12 
REMARK    3  A    between atoms: N_11  and  C_12 
ROOT
HETATM    1  C   UNL     1      64.353   8.020   4.945  1.00  0.00     0.047 A 
HETATM    2  C   UNL     1      64.089   7.320   3.759  1.00  0.00     0.017 A 
HETATM    3  C   UNL     1      63.678   9.228   5.179  1.00  0.00     0.017 A 
HETATM    4  C   UNL     1      62.766   9.724   4.245  1.00  0.00     0.009 A 
HETATM    5  C   UNL     1      63.177   7.818   2.825  1.00  0.00     0.009 A 
HETATM    6  C   UNL     1      62.510   9.029   3.055  1.00  0.00    -0.033 A 
ENDROOT
BRANCH   6   7
HETATM    7  C   UNL     1      61.560   9.596   2.031  1.00  0.00     0.268 C 
BRANCH   7   8
HETATM    8  N   UNL     1      61.574  11.054   2.028  1.00  0.00    -0.075 N 
HETATM    9  H   UNL     1      60.660  11.403   2.316  1.00  0.00     0.274 HD
HETATM   10  H   UNL     1      61.785  11.389   1.087  1.00  0.00     0.274 HD
HETATM   11  H   UNL     1      62.287  11.389   2.676  1.00  0.00     0.274 HD
ENDBRANCH   7   8
ENDBRANCH   6   7
BRANCH   1  12
HETATM   12  C   UNL     1      65.342   7.504   5.958  1.00  0.00     0.417 C 
HETATM   13  F   UNL     1      66.149   6.515   5.480  1.00  0.00    -0.166 F 
HETATM   14  F   UNL     1      64.736   6.984   7.063  1.00  0.00    -0.166 F 
HETATM   15  F   UNL     1      66.179   8.477   6.415  1.00  0.00    -0.166 F 
ENDBRANCH   1  12
TORSDOF 3
ENDMDL
MODEL 4
REMARK VINA RESULT:      -4.1      1.790      2.581
REMARK  3 active torsions:
REMARK  status: ('A' for Active; 'I' for Inactive)
REMARK    1  A    between atoms: C_1  and  C_2 
REMARK    2  A    between atoms: C_10  and  C_12 
REMARK    3  A    between atoms: N_11  and  C_12 
ROOT
HETATM    1  C   UNL     1      63.316   8.424   4.782  1.00  0.00     0.047 A 
HETATM    2  C   UNL     1      62.827   7.383   5.584  1.00  0.00     0.017 A 
HETATM    3  C   UNL     1      64.674   8.765   4.873  1.00  0.00     0.017 A 
HETATM    4  C   UNL     1      65.520   8.083   5.749  1.00  0.00     0.009 A 
HETATM    5  C   UNL     1      63.675   6.702   6.463  1.00  0.00     0.009 A 
HETATM    6  C   UNL     1      65.029   7.048   6.559  1.00  0.00    -0.033 A 
ENDROOT
BRANCH   6   7
HETATM    7  C   UNL     1      65.940   6.350   7.536  1.00  0.00     0.268 C 
BRANCH   7   8
HETATM    8  N   UNL     1      67.107   7.160   7.863  1.00  0.00    -0.075 N 
HETATM    9  H   UNL     1      66.838   7.893   8.519  1.00  0.00     0.274 HD
HETATM   10  H   UNL     1      67.477   7.583   7.012  1.00  0.00     0.274 HD
HETATM   11  H   UNL     1      67.822   6.570   8.288  1.00  0.00     0.274 HD
ENDBRANCH   7   8
ENDBRANCH   6   7
BRANCH   1  12
HETATM   12  C   UNL     1      62.413   9.177   3.838  1.00  0.00     0.417 C 
HETATM   13  F   UNL     1      61.112   8.773   3.886  1.00  0.00    -0.166 F 
HETATM   14  F   UNL     1      62.793   9.048   2.536  1.00  0.00    -0.166 F 
HETATM   15  F   UNL     1      62.394  10.516   4.090  1.00  0.00    -0.166 F 
ENDBRANCH   1  12
TORSDOF 3
ENDMDL
MODEL 5
REMARK VINA RESULT:      -4.0      3.746      4.863
REMARK  3 active torsions:
REMARK  status: ('A' for Active; 'I' for Inactive)
REMARK    1  A    between atoms: C_1  and  C_2 
REMARK    2  A    between atoms: C_10  and  C_12 
REMARK    3  A    between atoms: N_11  and  C_12 
ROOT
HETATM    1  C   UNL     1      62.203   8.979   3.663  1.00  0.00     0.047 A 
HETATM    2  C   UNL     1      62.313   9.628   2.425  1.00  0.00     0.017 A 
HETATM    3  C   UNL     1      61.255   7.955   3.806  1.00  0.00     0.017 A 
HETATM    4  C   UNL     1      60.435   7.593   2.735  1.00  0.00     0.009 A 
HETATM    5  C   UNL     1      61.490   9.265   1.354  1.00  0.00     0.009 A 
HETATM    6  C   UNL     1      60.538   8.247   1.500  1.00  0.00    -0.033 A 
ENDROOT
BRANCH   6   7
HETATM    7  C   UNL     1      59.616   7.881   0.365  1.00  0.00     0.268 C 
BRANCH   7   8
HETATM    8  N   UNL     1      58.362   7.313   0.847  1.00  0.00    -0.075 N 
HETATM    9  H   UNL     1      58.546   6.724   1.658  1.00  0.00     0.274 HD
HETATM   10  H   UNL     1      57.937   6.753   0.108  1.00  0.00     0.274 HD
HETATM   11  H   UNL     1      57.727   8.066   1.111  1.00  0.00     0.274 HD
ENDBRANCH   7   8
ENDBRANCH   6   7
BRANCH   1  12
HETATM   12  C   UNL     1      63.074   9.365   4.831  1.00  0.00     0.417 C 
HETATM   13  F   UNL     1      64.399   9.115   4.632  1.00  0.00    -0.166 F 
HETATM   14  F   UNL     1      62.740   8.703   5.974  1.00  0.00    -0.166 F 
HETATM   15  F   UNL     1      62.989  10.692   5.130  1.00  0.00    -0.166 F 
ENDBRANCH   1  12
TORSDOF 3
ENDMDL
MODEL 6
REMARK VINA RESULT:      -4.0      4.244      5.072
REMARK  3 active torsions:
REMARK  status: ('A' for Active; 'I' for Inactive)
REMARK    1  A    between atoms: C_1  and  C_2 
REMARK    2  A    between atoms: C_10  and  C_12 
REMARK    3  A    between atoms: N_11  and  C_12 
ROOT
HETATM    1  C   UNL     1      65.683   7.606   4.636  1.00  0.00     0.047 A 
HETATM    2  C   UNL     1      64.969   8.662   5.221  1.00  0.00     0.017 A 
HETATM    3  C   UNL     1      65.040   6.805   3.680  1.00  0.00     0.017 A 
HETATM    4  C   UNL     1      63.713   7.052   3.324  1.00  0.00     0.009 A 
HETATM    5  C   UNL     1      63.640   8.908   4.864  1.00  0.00     0.009 A 
HETATM    6  C   UNL     1      62.995   8.102   3.915  1.00  0.00    -0.033 A 
ENDROOT
BRANCH   6   7
HETATM    7  C   UNL     1      61.549   8.331   3.559  1.00  0.00     0.268 C 
BRANCH   7   8
HETATM    8  N   UNL     1      61.223   9.751   3.503  1.00  0.00    -0.075 N 
HETATM    9  H   UNL     1      60.362   9.922   4.022  1.00  0.00     0.274 HD
HETATM   10  H   UNL     1      61.095  10.032   2.531  1.00  0.00     0.274 HD
HETATM   11  H   UNL     1      61.983  10.291   3.916  1.00  0.00     0.274 HD
ENDBRANCH   7   8
ENDBRANCH   6   7
BRANCH   1  12
HETATM   12  C   UNL     1      67.113   7.320   5.018  1.00  0.00     0.417 C 
HETATM   13  F   UNL     1      67.536   6.076   4.659  1.00  0.00    -0.166 F 
HETATM   14  F   UNL     1      67.323   7.410   6.361  1.00  0.00    -0.166 F 
HETATM   15  F   UNL     1      67.991   8.190   4.444  1.00  0.00    -0.166 F 
ENDBRANCH   1  12
TORSDOF 3
ENDMDL
MODEL 7
REMARK VINA RESULT:      -3.8      1.844      2.298
REMARK  3 active torsions:
REMARK  status: ('A' for Active; 'I' for Inactive)
REMARK    1  A    between atoms: C_1  and  C_2 
REMARK    2  A    between atoms: C_10  and  C_12 
REMARK    3  A    between atoms: N_11  and  C_12 
ROOT
HETATM    1  C   UNL     1      61.908   8.665   2.662  1.00  0.00     0.047 A 
HETATM    2  C   UNL     1      60.989   7.676   3.042  1.00  0.00     0.017 A 
HETATM    3  C   UNL     1      63.001   8.928   3.502  1.00  0.00     0.017 A 
HETATM    4  C   UNL     1      63.166   8.221   4.694  1.00  0.00     0.009 A 
HETATM    5  C   UNL     1      61.155   6.970   4.237  1.00  0.00     0.009 A 
HETATM    6  C   UNL     1      62.242   7.238   5.079  1.00  0.00    -0.033 A 
ENDROOT
BRANCH   6   7
HETATM    7  C   UNL     1      62.404   6.514   6.391  1.00  0.00     0.268 C 
BRANCH   7   8
HETATM    8  N   UNL     1      61.461   5.410   6.520  1.00  0.00    -0.075 N 
HETATM    9  H   UNL     1      61.798   4.757   7.227  1.00  0.00     0.274 HD
HETATM   10  H   UNL     1      61.377   4.928   5.624  1.00  0.00     0.274 HD
HETATM   11  H   UNL     1      60.549   5.771   6.798  1.00  0.00     0.274 HD
ENDBRANCH   7   8
ENDBRANCH   6   7
BRANCH   1  12
HETATM   12  C   UNL     1      61.737   9.444   1.383  1.00  0.00     0.417 C 
HETATM   13  F   UNL     1      61.845  10.793   1.545  1.00  0.00    -0.166 F 
HETATM   14  F   UNL     1      60.522   9.237   0.803  1.00  0.00    -0.166 F 
HETATM   15  F   UNL     1      62.663   9.109   0.440  1.00  0.00    -0.166 F 
ENDBRANCH   1  12
TORSDOF 3
ENDMDL
MODEL 8
REMARK VINA RESULT:      -3.7      2.867      3.682
REMARK  3 active torsions:
REMARK  status: ('A' for Active; 'I' for Inactive)
REMARK    1  A    between atoms: C_1  and  C_2 
REMARK    2  A    between atoms: C_10  and  C_12 
REMARK    3  A    between atoms: N_11  and  C_12 
ROOT
HETATM    1  C   UNL     1      63.932   8.642   4.575  1.00  0.00     0.047 A 
HETATM    2  C   UNL     1      63.380   7.885   3.532  1.00  0.00     0.017 A 
HETATM    3  C   UNL     1      65.177   8.263   5.098  1.00  0.00     0.017 A 
HETATM    4  C   UNL     1      65.850   7.149   4.592  1.00  0.00     0.009 A 
HETATM    5  C   UNL     1      64.054   6.769   3.026  1.00  0.00     0.009 A 
HETATM    6  C   UNL     1      65.294   6.386   3.555  1.00  0.00    -0.033 A 
ENDROOT
BRANCH   6   7
HETATM    7  C   UNL     1      66.006   5.158   3.048  1.00  0.00     0.268 C 
BRANCH   7   8
HETATM    8  N   UNL     1      67.423   5.171   3.394  1.00  0.00    -0.075 N 
HETATM    9  H   UNL     1      67.662   4.305   3.877  1.00  0.00     0.274 HD
HETATM   10  H   UNL     1      67.616   5.966   4.004  1.00  0.00     0.274 HD
HETATM   11  H   UNL     1      67.980   5.252   2.544  1.00  0.00     0.274 HD
ENDBRANCH   7   8
ENDBRANCH   6   7
BRANCH   1  12
HETATM   12  C   UNL     1      63.213   9.841   5.139  1.00  0.00     0.417 C 
HETATM   13  F   UNL     1      62.389   9.544   6.184  1.00  0.00    -0.166 F 
HETATM   14  F   UNL     1      62.428  10.463   4.215  1.00  0.00    -0.166 F 
HETATM   15  F   UNL     1      64.070  10.794   5.602  1.00  0.00    -0.166 F 
ENDBRANCH   1  12
TORSDOF 3
ENDMDL
MODEL 9
REMARK VINA RESULT:      -3.7      3.933      4.823
REMARK  3 active torsions:
REMARK  status: ('A' for Active; 'I' for Inactive)
REMARK    1  A    between atoms: C_1  and  C_2 
REMARK    2  A    between atoms: C_10  and  C_12 
REMARK    3  A    between atoms: N_11  and  C_12 
ROOT
HETATM    1  C   UNL     1      62.324   7.437   5.023  1.00  0.00     0.047 A 
HETATM    2  C   UNL     1      63.074   8.495   5.558  1.00  0.00     0.017 A 
HETATM    3  C   UNL     1      61.457   7.699   3.952  1.00  0.00     0.017 A 
HETATM    4  C   UNL     1      61.340   8.990   3.433  1.00  0.00     0.009 A 
HETATM    5  C   UNL     1      62.955   9.787   5.038  1.00  0.00     0.009 A 
HETATM    6  C   UNL     1      62.082  10.050   3.974  1.00  0.00    -0.033 A 
ENDROOT
BRANCH   6   7
HETATM    7  C   UNL     1      61.914  11.449   3.438  1.00  0.00     0.268 C 
BRANCH   7   8
HETATM    8  N   UNL     1      61.529  11.448   2.032  1.00  0.00    -0.075 N 
HETATM    9  H   UNL     1      60.629  11.915   1.926  1.00  0.00     0.274 HD
HETATM   10  H   UNL     1      61.455  10.486   1.700  1.00  0.00     0.274 HD
HETATM   11  H   UNL     1      62.235  11.942   1.486  1.00  0.00     0.274 HD
ENDBRANCH   7   8
ENDBRANCH   6   7
BRANCH   1  12
HETATM   12  C   UNL     1      62.432   6.040   5.579  1.00  0.00     0.417 C 
HETATM   13  F   UNL     1      63.353   5.917   6.576  1.00  0.00    -0.166 F 
HETATM   14  F   UNL     1      62.787   5.126   4.632  1.00  0.00    -0.166 F 
HETATM   15  F   UNL     1      61.256   5.594   6.103  1.00  0.00    -0.166 F 
ENDBRANCH   1  12
TORSDOF 3
ENDMDL
