MODEL 1
REMARK VINA RESULT:      -5.3      0.000      0.000
REMARK  2 active torsions:
REMARK  status: ('A' for Active; 'I' for Inactive)
REMARK    1  A    between atoms: C_1  and  C_2 
REMARK       I    between atoms: C_2  and  N_7 
REMARK    2  A    between atoms: C_3  and  N_8 
ROOT
HETATM    1  C   UNL     1      62.491  10.134   3.612  1.00  0.00     0.058 A 
HETATM    2  C   UNL     1      61.919  10.473   2.364  1.00  0.00     0.042 A 
HETATM    3  C   UNL     1      62.948   8.822   3.826  1.00  0.00     0.020 A 
HETATM    4  C   UNL     1      61.873   9.502   1.351  1.00  0.00     0.036 A 
HETATM    5  C   UNL     1      62.853   7.860   2.814  1.00  0.00     0.008 A 
HETATM    6  C   UNL     1      62.316   8.189   1.569  1.00  0.00    -0.060 A 
HETATM    7  C   UNL     1      62.211   7.171   0.472  1.00  0.00     0.048 C 
ENDROOT
BRANCH   1   8
HETATM    8  C   UNL     1      62.518  11.150   4.717  1.00  0.00     0.251 C 
HETATM    9  O   UNL     1      61.852  12.172   4.669  1.00  0.00    -0.268 OA
HETATM   10  N   UNL     1      63.316  10.911   5.809  1.00  0.00    -0.366 N 
HETATM   11  H   UNL     1      63.855  10.089   5.855  1.00  0.00     0.159 HD
HETATM   12  H   UNL     1      63.347  11.563   6.547  1.00  0.00     0.159 HD
ENDBRANCH   1   8
BRANCH   2  13
HETATM   13  N   UNL     1      61.619  11.806   2.008  1.00  0.00    -0.398 N 
HETATM   14  H   UNL     1      61.627  12.513   2.693  1.00  0.00     0.156 HD
HETATM   15  H   UNL     1      61.400  12.029   1.075  1.00  0.00     0.156 HD
ENDBRANCH   2  13
TORSDOF 2
ENDMDL
MODEL 2
REMARK VINA RESULT:      -5.3      2.437      3.427
REMARK  2 active torsions:
REMARK  status: ('A' for Active; 'I' for Inactive)
REMARK    1  A    between atoms: C_1  and  C_2 
REMARK       I    between atoms: C_2  and  N_7 
REMARK    2  A    between atoms: C_3  and  N_8 
ROOT
HETATM    1  C   UNL     1      62.942   9.137   4.902  1.00  0.00     0.058 A 
HETATM    2  C   UNL     1      62.685  10.493   5.211  1.00  0.00     0.042 A 
HETATM    3  C   UNL     1      62.711   8.673   3.595  1.00  0.00     0.020 A 
HETATM    4  C   UNL     1      62.257  11.354   4.187  1.00  0.00     0.036 A 
HETATM    5  C   UNL     1      62.243   9.541   2.602  1.00  0.00     0.008 A 
HETATM    6  C   UNL     1      62.012  10.887   2.888  1.00  0.00    -0.060 A 
HETATM    7  C   UNL     1      61.516  11.832   1.833  1.00  0.00     0.048 C 
ENDROOT
BRANCH   1   8
HETATM    8  C   UNL     1      63.369   8.195   5.991  1.00  0.00     0.251 C 
HETATM    9  O   UNL     1      62.600   7.834   6.868  1.00  0.00    -0.268 OA
HETATM   10  N   UNL     1      64.661   7.732   5.989  1.00  0.00    -0.366 N 
HETATM   11  H   UNL     1      65.286   8.018   5.286  1.00  0.00     0.159 HD
HETATM   12  H   UNL     1      64.961   7.111   6.692  1.00  0.00     0.159 HD
ENDBRANCH   1   8
BRANCH   2  13
HETATM   13  N   UNL     1      63.074  11.075   6.437  1.00  0.00    -0.398 N 
HETATM   14  H   UNL     1      63.413  11.999   6.457  1.00  0.00     0.156 HD
HETATM   15  H   UNL     1      63.006  10.558   7.271  1.00  0.00     0.156 HD
ENDBRANCH   2  13
TORSDOF 2
ENDMDL
MODEL 3
REMARK VINA RESULT:      -5.0      2.389      3.160
REMARK  2 active torsions:
REMARK  status: ('A' for Active; 'I' for Inactive)
REMARK    1  A    between atoms: C_1  and  C_2 
REMARK       I    between atoms: C_2  and  N_7 
REMARK    2  A    between atoms: C_3  and  N_8 
ROOT
HETATM    1  C   UNL     1      64.019   8.447   4.748  1.00  0.00     0.058 A 
HETATM    2  C   UNL     1      63.156   9.568   4.755  1.00  0.00     0.042 A 
HETATM    3  C   UNL     1      63.965   7.544   3.672  1.00  0.00     0.020 A 
HETATM    4  C   UNL     1      62.305   9.778   3.657  1.00  0.00     0.036 A 
HETATM    5  C   UNL     1      63.078   7.753   2.609  1.00  0.00     0.008 A 
HETATM    6  C   UNL     1      62.241   8.869   2.592  1.00  0.00    -0.060 A 
HETATM    7  C   UNL     1      61.289   9.110   1.457  1.00  0.00     0.048 C 
ENDROOT
BRANCH   1   8
HETATM    8  C   UNL     1      64.911   8.189   5.927  1.00  0.00     0.251 C 
HETATM    9  O   UNL     1      65.884   8.887   6.164  1.00  0.00    -0.268 OA
HETATM   10  N   UNL     1      64.613   7.137   6.757  1.00  0.00    -0.366 N 
HETATM   11  H   UNL     1      63.830   6.570   6.573  1.00  0.00     0.159 HD
HETATM   12  H   UNL     1      65.183   6.950   7.539  1.00  0.00     0.159 HD
ENDBRANCH   1   8
BRANCH   2  13
HETATM   13  N   UNL     1      63.285  10.615   5.693  1.00  0.00    -0.398 N 
HETATM   14  H   UNL     1      63.989  11.294   5.580  1.00  0.00     0.156 HD
HETATM   15  H   UNL     1      62.673  10.666   6.462  1.00  0.00     0.156 HD
ENDBRANCH   2  13
TORSDOF 2
ENDMDL
MODEL 4
REMARK VINA RESULT:      -4.9      1.267      2.955
REMARK  2 active torsions:
REMARK  status: ('A' for Active; 'I' for Inactive)
REMARK    1  A    between atoms: C_1  and  C_2 
REMARK       I    between atoms: C_2  and  N_7 
REMARK    2  A    between atoms: C_3  and  N_8 
ROOT
HETATM    1  C   UNL     1      62.566   9.739   3.567  1.00  0.00     0.058 A 
HETATM    2  C   UNL     1      63.360   9.476   4.707  1.00  0.00     0.042 A 
HETATM    3  C   UNL     1      62.448   8.755   2.569  1.00  0.00     0.020 A 
HETATM    4  C   UNL     1      63.966   8.216   4.838  1.00  0.00     0.036 A 
HETATM    5  C   UNL     1      63.097   7.522   2.702  1.00  0.00     0.008 A 
HETATM    6  C   UNL     1      63.861   7.241   3.836  1.00  0.00    -0.060 A 
HETATM    7  C   UNL     1      64.558   5.922   3.997  1.00  0.00     0.048 C 
ENDROOT
BRANCH   1   8
HETATM    8  C   UNL     1      61.938  11.091   3.395  1.00  0.00     0.251 C 
HETATM    9  O   UNL     1      61.792  11.858   4.334  1.00  0.00    -0.268 OA
HETATM   10  N   UNL     1      61.521  11.467   2.142  1.00  0.00    -0.366 N 
HETATM   11  H   UNL     1      61.636  10.855   1.380  1.00  0.00     0.159 HD
HETATM   12  H   UNL     1      61.109  12.351   2.005  1.00  0.00     0.159 HD
ENDBRANCH   1   8
BRANCH   2  13
HETATM   13  N   UNL     1      63.370  10.327   5.834  1.00  0.00    -0.398 N 
HETATM   14  H   UNL     1      64.090  10.254   6.500  1.00  0.00     0.156 HD
HETATM   15  H   UNL     1      62.656  10.994   5.953  1.00  0.00     0.156 HD
ENDBRANCH   2  13
TORSDOF 2
ENDMDL
MODEL 5
REMARK VINA RESULT:      -4.6      2.762      3.582
REMARK  2 active torsions:
REMARK  status: ('A' for Active; 'I' for Inactive)
REMARK    1  A    between atoms: C_1  and  C_2 
REMARK       I    between atoms: C_2  and  N_7 
REMARK    2  A    between atoms: C_3  and  N_8 
ROOT
HETATM    1  C   UNL     1      62.932   8.743   4.688  1.00  0.00     0.058 A 
HETATM    2  C   UNL     1      62.654   8.439   3.335  1.00  0.00     0.042 A 
HETATM    3  C   UNL     1      62.784  10.066   5.140  1.00  0.00     0.020 A 
HETATM    4  C   UNL     1      62.183   9.458   2.491  1.00  0.00     0.036 A 
HETATM    5  C   UNL     1      62.354  11.074   4.269  1.00  0.00     0.008 A 
HETATM    6  C   UNL     1      62.050  10.780   2.939  1.00  0.00    -0.060 A 
HETATM    7  C   UNL     1      61.583  11.848   1.994  1.00  0.00     0.048 C 
ENDROOT
BRANCH   1   8
HETATM    8  C   UNL     1      63.466   7.673   5.595  1.00  0.00     0.251 C 
HETATM    9  O   UNL     1      62.832   6.659   5.839  1.00  0.00    -0.268 OA
HETATM   10  N   UNL     1      64.706   7.849   6.158  1.00  0.00    -0.366 N 
HETATM   11  H   UNL     1      65.224   8.663   5.966  1.00  0.00     0.159 HD
HETATM   12  H   UNL     1      65.078   7.159   6.754  1.00  0.00     0.159 HD
ENDBRANCH   1   8
BRANCH   2  13
HETATM   13  N   UNL     1      62.590   7.111   2.857  1.00  0.00    -0.398 N 
HETATM   14  H   UNL     1      62.260   6.931   1.947  1.00  0.00     0.156 HD
HETATM   15  H   UNL     1      62.874   6.366   3.433  1.00  0.00     0.156 HD
ENDBRANCH   2  13
TORSDOF 2
ENDMDL
MODEL 6
REMARK VINA RESULT:      -4.3      3.138      3.705
REMARK  2 active torsions:
REMARK  status: ('A' for Active; 'I' for Inactive)
REMARK    1  A    between atoms: C_1  and  C_2 
REMARK       I    between atoms: C_2  and  N_7 
REMARK    2  A    between atoms: C_3  and  N_8 
ROOT
HETATM    1  C   UNL     1      64.134   8.267   4.551  1.00  0.00     0.058 A 
HETATM    2  C   UNL     1      64.061   7.397   3.439  1.00  0.00     0.042 A 
HETATM    3  C   UNL     1      63.261   9.367   4.623  1.00  0.00     0.020 A 
HETATM    4  C   UNL     1      63.079   7.624   2.461  1.00  0.00     0.036 A 
HETATM    5  C   UNL     1      62.318   9.597   3.614  1.00  0.00     0.008 A 
HETATM    6  C   UNL     1      62.218   8.729   2.526  1.00  0.00    -0.060 A 
HETATM    7  C   UNL     1      61.209   8.958   1.439  1.00  0.00     0.048 C 
ENDROOT
BRANCH   1   8
HETATM    8  C   UNL     1      65.199   8.059   5.588  1.00  0.00     0.251 C 
HETATM    9  O   UNL     1      66.358   8.395   5.399  1.00  0.00    -0.268 OA
HETATM   10  N   UNL     1      64.849   7.476   6.781  1.00  0.00    -0.366 N 
HETATM   11  H   UNL     1      63.917   7.203   6.942  1.00  0.00     0.159 HD
HETATM   12  H   UNL     1      65.531   7.332   7.477  1.00  0.00     0.159 HD
ENDBRANCH   1   8
BRANCH   2  13
HETATM   13  N   UNL     1      64.763   6.173   3.390  1.00  0.00    -0.398 N 
HETATM   14  H   UNL     1      64.495   5.428   3.975  1.00  0.00     0.156 HD
HETATM   15  H   UNL     1      65.521   6.064   2.773  1.00  0.00     0.156 HD
ENDBRANCH   2  13
TORSDOF 2
ENDMDL
MODEL 7
REMARK VINA RESULT:      -4.3      4.865      6.002
REMARK  2 active torsions:
REMARK  status: ('A' for Active; 'I' for Inactive)
REMARK    1  A    between atoms: C_1  and  C_2 
REMARK       I    between atoms: C_2  and  N_7 
REMARK    2  A    between atoms: C_3  and  N_8 
ROOT
HETATM    1  C   UNL     1      65.565   6.804   7.046  1.00  0.00     0.058 A 
HETATM    2  C   UNL     1      66.160   7.791   6.226  1.00  0.00     0.042 A 
HETATM    3  C   UNL     1      64.240   6.407   6.793  1.00  0.00     0.020 A 
HETATM    4  C   UNL     1      65.428   8.309   5.144  1.00  0.00     0.036 A 
HETATM    5  C   UNL     1      63.516   6.969   5.735  1.00  0.00     0.008 A 
HETATM    6  C   UNL     1      64.102   7.924   4.902  1.00  0.00    -0.060 A 
HETATM    7  C   UNL     1      63.341   8.532   3.760  1.00  0.00     0.048 C 
ENDROOT
BRANCH   1   8
HETATM    8  C   UNL     1      66.320   6.264   8.225  1.00  0.00     0.251 C 
HETATM    9  O   UNL     1      67.037   6.975   8.911  1.00  0.00    -0.268 OA
HETATM   10  N   UNL     1      66.193   4.932   8.532  1.00  0.00    -0.366 N 
HETATM   11  H   UNL     1      65.616   4.353   7.984  1.00  0.00     0.159 HD
HETATM   12  H   UNL     1      66.677   4.557   9.303  1.00  0.00     0.159 HD
ENDBRANCH   1   8
BRANCH   2  13
HETATM   13  N   UNL     1      67.536   8.099   6.292  1.00  0.00    -0.398 N 
HETATM   14  H   UNL     1      67.898   8.571   7.075  1.00  0.00     0.156 HD
HETATM   15  H   UNL     1      68.135   7.841   5.554  1.00  0.00     0.156 HD
ENDBRANCH   2  13
TORSDOF 2
ENDMDL
MODEL 8
REMARK VINA RESULT:      -4.2      3.918      5.172
REMARK  2 active torsions:
REMARK  status: ('A' for Active; 'I' for Inactive)
REMARK    1  A    between atoms: C_1  and  C_2 
REMARK       I    between atoms: C_2  and  N_7 
REMARK    2  A    between atoms: C_3  and  N_8 
ROOT
HETATM    1  C   UNL     1      65.269   7.049   4.463  1.00  0.00     0.058 A 
HETATM    2  C   UNL     1      65.051   8.135   5.342  1.00  0.00     0.042 A 
HETATM    3  C   UNL     1      64.405   6.865   3.369  1.00  0.00     0.020 A 
HETATM    4  C   UNL     1      64.008   9.034   5.066  1.00  0.00     0.036 A 
HETATM    5  C   UNL     1      63.346   7.751   3.139  1.00  0.00     0.008 A 
HETATM    6  C   UNL     1      63.138   8.842   3.983  1.00  0.00    -0.060 A 
HETATM    7  C   UNL     1      62.011   9.804   3.747  1.00  0.00     0.048 C 
ENDROOT
BRANCH   1   8
HETATM    8  C   UNL     1      66.358   6.059   4.761  1.00  0.00     0.251 C 
HETATM    9  O   UNL     1      66.395   5.439   5.812  1.00  0.00    -0.268 OA
HETATM   10  N   UNL     1      67.333   5.853   3.817  1.00  0.00    -0.366 N 
HETATM   11  H   UNL     1      67.310   6.348   2.967  1.00  0.00     0.159 HD
HETATM   12  H   UNL     1      68.056   5.206   3.990  1.00  0.00     0.159 HD
ENDBRANCH   1   8
BRANCH   2  13
HETATM   13  N   UNL     1      65.981   8.498   6.340  1.00  0.00    -0.398 N 
HETATM   14  H   UNL     1      66.526   9.310   6.234  1.00  0.00     0.156 HD
HETATM   15  H   UNL     1      66.086   7.938   7.143  1.00  0.00     0.156 HD
ENDBRANCH   2  13
TORSDOF 2
ENDMDL
MODEL 9
REMARK VINA RESULT:      -4.0      2.970      4.215
REMARK  2 active torsions:
REMARK  status: ('A' for Active; 'I' for Inactive)
REMARK    1  A    between atoms: C_1  and  C_2 
REMARK       I    between atoms: C_2  and  N_7 
REMARK    2  A    between atoms: C_3  and  N_8 
ROOT
HETATM    1  C   UNL     1      62.694   8.033   2.669  1.00  0.00     0.058 A 
HETATM    2  C   UNL     1      61.860   9.170   2.550  1.00  0.00     0.042 A 
HETATM    3  C   UNL     1      63.586   7.946   3.752  1.00  0.00     0.020 A 
HETATM    4  C   UNL     1      61.907  10.156   3.549  1.00  0.00     0.036 A 
HETATM    5  C   UNL     1      63.645   8.963   4.713  1.00  0.00     0.008 A 
HETATM    6  C   UNL     1      62.808  10.075   4.620  1.00  0.00    -0.060 A 
HETATM    7  C   UNL     1      62.855  11.171   5.644  1.00  0.00     0.048 C 
ENDROOT
BRANCH   1   8
HETATM    8  C   UNL     1      62.680   6.986   1.595  1.00  0.00     0.251 C 
HETATM    9  O   UNL     1      62.722   7.278   0.410  1.00  0.00    -0.268 OA
HETATM   10  N   UNL     1      62.620   5.666   1.965  1.00  0.00    -0.366 N 
HETATM   11  H   UNL     1      62.586   5.422   2.918  1.00  0.00     0.159 HD
HETATM   12  H   UNL     1      62.612   4.961   1.277  1.00  0.00     0.159 HD
ENDBRANCH   1   8
BRANCH   2  13
HETATM   13  N   UNL     1      60.809   9.240   1.609  1.00  0.00    -0.398 N 
HETATM   14  H   UNL     1      60.942   9.713   0.757  1.00  0.00     0.156 HD
HETATM   15  H   UNL     1      59.943   8.816   1.806  1.00  0.00     0.156 HD
ENDBRANCH   2  13
TORSDOF 2
ENDMDL
