MODEL 1
REMARK VINA RESULT:      -5.2      0.000      0.000
REMARK  2 active torsions:
REMARK  status: ('A' for Active; 'I' for Inactive)
REMARK    1  A    between atoms: C_1  and  C_2 
REMARK    2  A    between atoms: C_1  and  O_10 
ROOT
HETATM    1  C   UNL     1      62.932   8.852   4.778  1.00  0.00     0.041 A 
HETATM    2  C   UNL     1      62.295   9.494   2.528  1.00  0.00     0.041 A 
HETATM    3  C   UNL     1      62.718   8.518   3.437  1.00  0.00     0.042 A 
HETATM    4  C   UNL     1      62.071  10.817   2.940  1.00  0.00    -0.040 A 
HETATM    5  C   UNL     1      62.740  10.177   5.192  1.00  0.00     0.018 A 
HETATM    6  C   UNL     1      62.312  11.148   4.281  1.00  0.00     0.009 A 
HETATM    7 CL   UNL     1      62.062   9.012   0.884  1.00  0.00    -0.084 Cl
HETATM    8  C   UNL     1      61.581  11.873   1.989  1.00  0.00     0.050 C 
ENDROOT
BRANCH   1   9
HETATM    9  C   UNL     1      63.352   7.844   5.795  1.00  0.00     0.293 C 
HETATM   10  O   UNL     1      62.753   7.656   6.840  1.00  0.00    -0.259 OA
BRANCH   9  11
HETATM   11  O   UNL     1      64.463   7.188   5.379  1.00  0.00    -0.323 OA
HETATM   12  C   UNL     1      65.711   7.783   5.746  1.00  0.00     0.213 C 
ENDBRANCH   9  11
ENDBRANCH   1   9
TORSDOF 2
ENDMDL
MODEL 2
REMARK VINA RESULT:      -4.9      1.613      2.332
REMARK  2 active torsions:
REMARK  status: ('A' for Active; 'I' for Inactive)
REMARK    1  A    between atoms: C_1  and  C_2 
REMARK    2  A    between atoms: C_1  and  O_10 
ROOT
HETATM    1  C   UNL     1      63.708   8.295   4.702  1.00  0.00     0.041 A 
HETATM    2  C   UNL     1      62.475   9.708   3.164  1.00  0.00     0.041 A 
HETATM    3  C   UNL     1      63.098   9.518   4.402  1.00  0.00     0.042 A 
HETATM    4  C   UNL     1      62.457   8.688   2.199  1.00  0.00    -0.040 A 
HETATM    5  C   UNL     1      63.668   7.261   3.757  1.00  0.00     0.018 A 
HETATM    6  C   UNL     1      63.049   7.458   2.518  1.00  0.00     0.009 A 
HETATM    7 CL   UNL     1      61.731  11.240   2.866  1.00  0.00    -0.084 Cl
HETATM    8  C   UNL     1      61.827   8.883   0.849  1.00  0.00     0.050 C 
ENDROOT
BRANCH   1   9
HETATM    9  C   UNL     1      64.412   8.050   5.994  1.00  0.00     0.293 C 
HETATM   10  O   UNL     1      63.997   7.287   6.850  1.00  0.00    -0.259 OA
BRANCH   9  11
HETATM   11  O   UNL     1      65.552   8.781   6.058  1.00  0.00    -0.323 OA
HETATM   12  C   UNL     1      66.746   8.046   6.340  1.00  0.00     0.213 C 
ENDBRANCH   9  11
ENDBRANCH   1   9
TORSDOF 2
ENDMDL
MODEL 3
REMARK VINA RESULT:      -4.5      1.626      2.141
REMARK  2 active torsions:
REMARK  status: ('A' for Active; 'I' for Inactive)
REMARK    1  A    between atoms: C_1  and  C_2 
REMARK    2  A    between atoms: C_1  and  O_10 
ROOT
HETATM    1  C   UNL     1      63.861   8.458   4.550  1.00  0.00     0.041 A 
HETATM    2  C   UNL     1      63.059   7.594   2.431  1.00  0.00     0.041 A 
HETATM    3  C   UNL     1      63.901   7.488   3.543  1.00  0.00     0.042 A 
HETATM    4  C   UNL     1      62.157   8.664   2.307  1.00  0.00    -0.040 A 
HETATM    5  C   UNL     1      62.986   9.544   4.420  1.00  0.00     0.018 A 
HETATM    6  C   UNL     1      62.141   9.644   3.309  1.00  0.00     0.009 A 
HETATM    7 CL   UNL     1      63.170   6.367   1.218  1.00  0.00    -0.084 Cl
HETATM    8  C   UNL     1      61.217   8.778   1.139  1.00  0.00     0.050 C 
ENDROOT
BRANCH   1   9
HETATM    9  C   UNL     1      64.715   8.375   5.771  1.00  0.00     0.293 C 
HETATM   10  O   UNL     1      65.704   9.067   5.946  1.00  0.00    -0.259 OA
BRANCH   9  11
HETATM   11  O   UNL     1      64.226   7.447   6.628  1.00  0.00    -0.323 OA
HETATM   12  C   UNL     1      65.160   6.457   7.071  1.00  0.00     0.213 C 
ENDBRANCH   9  11
ENDBRANCH   1   9
TORSDOF 2
ENDMDL
MODEL 4
REMARK VINA RESULT:      -4.4      2.298      2.832
REMARK  2 active torsions:
REMARK  status: ('A' for Active; 'I' for Inactive)
REMARK    1  A    between atoms: C_1  and  C_2 
REMARK    2  A    between atoms: C_1  and  O_10 
ROOT
HETATM    1  C   UNL     1      62.787   7.884   2.935  1.00  0.00     0.041 A 
HETATM    2  C   UNL     1      62.388  10.174   3.627  1.00  0.00     0.041 A 
HETATM    3  C   UNL     1      62.780   8.866   3.931  1.00  0.00     0.042 A 
HETATM    4  C   UNL     1      62.006  10.529   2.323  1.00  0.00    -0.040 A 
HETATM    5  C   UNL     1      62.378   8.222   1.638  1.00  0.00     0.018 A 
HETATM    6  C   UNL     1      61.993   9.533   1.336  1.00  0.00     0.009 A 
HETATM    7 CL   UNL     1      62.391  11.333   4.910  1.00  0.00    -0.084 Cl
HETATM    8  C   UNL     1      61.617  11.936   1.965  1.00  0.00     0.050 C 
ENDROOT
BRANCH   1   9
HETATM    9  C   UNL     1      63.225   6.483   3.199  1.00  0.00     0.293 C 
HETATM   10  O   UNL     1      62.594   5.701   3.890  1.00  0.00    -0.259 OA
BRANCH   9  11
HETATM   11  O   UNL     1      64.393   6.224   2.561  1.00  0.00    -0.323 OA
HETATM   12  C   UNL     1      65.468   5.774   3.391  1.00  0.00     0.213 C 
ENDBRANCH   9  11
ENDBRANCH   1   9
TORSDOF 2
ENDMDL
MODEL 5
REMARK VINA RESULT:      -4.1      2.159      2.712
REMARK  2 active torsions:
REMARK  status: ('A' for Active; 'I' for Inactive)
REMARK    1  A    between atoms: C_1  and  C_2 
REMARK    2  A    between atoms: C_1  and  O_10 
ROOT
HETATM    1  C   UNL     1      62.415   9.074   3.885  1.00  0.00     0.041 A 
HETATM    2  C   UNL     1      60.764   7.582   2.921  1.00  0.00     0.041 A 
HETATM    3  C   UNL     1      61.607   7.935   3.979  1.00  0.00     0.042 A 
HETATM    4  C   UNL     1      60.702   8.361   1.754  1.00  0.00    -0.040 A 
HETATM    5  C   UNL     1      62.382   9.840   2.712  1.00  0.00     0.018 A 
HETATM    6  C   UNL     1      61.532   9.487   1.658  1.00  0.00     0.009 A 
HETATM    7 CL   UNL     1      59.804   6.155   3.101  1.00  0.00    -0.084 Cl
HETATM    8  C   UNL     1      59.776   8.021   0.620  1.00  0.00     0.050 C 
ENDROOT
BRANCH   1   9
HETATM    9  C   UNL     1      63.308   9.513   4.996  1.00  0.00     0.293 C 
HETATM   10  O   UNL     1      62.920  10.161   5.953  1.00  0.00    -0.259 OA
BRANCH   9  11
HETATM   11  O   UNL     1      64.576   9.084   4.781  1.00  0.00    -0.323 OA
HETATM   12  C   UNL     1      64.999   7.974   5.578  1.00  0.00     0.213 C 
ENDBRANCH   9  11
ENDBRANCH   1   9
TORSDOF 2
ENDMDL
MODEL 6
REMARK VINA RESULT:      -4.0      2.914      4.899
REMARK  2 active torsions:
REMARK  status: ('A' for Active; 'I' for Inactive)
REMARK    1  A    between atoms: C_1  and  C_2 
REMARK    2  A    between atoms: C_1  and  O_10 
ROOT
HETATM    1  C   UNL     1      62.952   8.928   4.750  1.00  0.00     0.041 A 
HETATM    2  C   UNL     1      64.965   7.916   5.647  1.00  0.00     0.041 A 
HETATM    3  C   UNL     1      64.326   8.983   5.008  1.00  0.00     0.042 A 
HETATM    4  C   UNL     1      64.246   6.779   6.049  1.00  0.00    -0.040 A 
HETATM    5  C   UNL     1      62.233   7.783   5.120  1.00  0.00     0.018 A 
HETATM    6  C   UNL     1      62.875   6.721   5.764  1.00  0.00     0.009 A 
HETATM    7 CL   UNL     1      66.667   8.048   5.923  1.00  0.00    -0.084 Cl
HETATM    8  C   UNL     1      64.906   5.636   6.770  1.00  0.00     0.050 C 
ENDROOT
BRANCH   1   9
HETATM    9  C   UNL     1      62.216  10.050   4.099  1.00  0.00     0.293 C 
HETATM   10  O   UNL     1      62.130  11.166   4.584  1.00  0.00    -0.259 OA
BRANCH   9  11
HETATM   11  O   UNL     1      61.683   9.647   2.920  1.00  0.00    -0.323 OA
HETATM   12  C   UNL     1      61.899  10.521   1.809  1.00  0.00     0.213 C 
ENDBRANCH   9  11
ENDBRANCH   1   9
TORSDOF 2
ENDMDL
MODEL 7
REMARK VINA RESULT:      -4.0      2.216      2.919
REMARK  2 active torsions:
REMARK  status: ('A' for Active; 'I' for Inactive)
REMARK    1  A    between atoms: C_1  and  C_2 
REMARK    2  A    between atoms: C_1  and  O_10 
ROOT
HETATM    1  C   UNL     1      64.259   7.857   5.428  1.00  0.00     0.041 A 
HETATM    2  C   UNL     1      62.648   8.355   3.686  1.00  0.00     0.041 A 
HETATM    3  C   UNL     1      63.934   8.483   4.220  1.00  0.00     0.042 A 
HETATM    4  C   UNL     1      61.665   7.595   4.340  1.00  0.00    -0.040 A 
HETATM    5  C   UNL     1      63.276   7.122   6.104  1.00  0.00     0.018 A 
HETATM    6  C   UNL     1      61.992   6.992   5.563  1.00  0.00     0.009 A 
HETATM    7 CL   UNL     1      62.313   9.165   2.196  1.00  0.00    -0.084 Cl
HETATM    8  C   UNL     1      60.288   7.414   3.766  1.00  0.00     0.050 C 
ENDROOT
BRANCH   1   9
HETATM    9  C   UNL     1      65.624   7.935   6.026  1.00  0.00     0.293 C 
HETATM   10  O   UNL     1      65.890   7.530   7.145  1.00  0.00    -0.259 OA
BRANCH   9  11
HETATM   11  O   UNL     1      66.492   8.500   5.152  1.00  0.00    -0.323 OA
HETATM   12  C   UNL     1      67.718   7.792   4.948  1.00  0.00     0.213 C 
ENDBRANCH   9  11
ENDBRANCH   1   9
TORSDOF 2
ENDMDL
MODEL 8
REMARK VINA RESULT:      -3.9      4.041      6.993
REMARK  2 active torsions:
REMARK  status: ('A' for Active; 'I' for Inactive)
REMARK    1  A    between atoms: C_1  and  C_2 
REMARK    2  A    between atoms: C_1  and  O_10 
ROOT
HETATM    1  C   UNL     1      66.345   6.827   6.586  1.00  0.00     0.041 A 
HETATM    2  C   UNL     1      67.419   4.656   6.710  1.00  0.00     0.041 A 
HETATM    3  C   UNL     1      66.898   5.710   5.951  1.00  0.00     0.042 A 
HETATM    4  C   UNL     1      67.407   4.701   8.113  1.00  0.00    -0.040 A 
HETATM    5  C   UNL     1      66.301   6.867   7.986  1.00  0.00     0.018 A 
HETATM    6  C   UNL     1      66.829   5.814   8.741  1.00  0.00     0.009 A 
HETATM    7 CL   UNL     1      68.075   3.302   5.859  1.00  0.00    -0.084 Cl
HETATM    8  C   UNL     1      67.995   3.598   8.948  1.00  0.00     0.050 C 
ENDROOT
BRANCH   1   9
HETATM    9  C   UNL     1      65.804   7.991   5.825  1.00  0.00     0.293 C 
HETATM   10  O   UNL     1      65.849   9.139   6.234  1.00  0.00    -0.259 OA
BRANCH   9  11
HETATM   11  O   UNL     1      65.281   7.582   4.644  1.00  0.00    -0.323 OA
HETATM   12  C   UNL     1      63.993   8.113   4.317  1.00  0.00     0.213 C 
ENDBRANCH   9  11
ENDBRANCH   1   9
TORSDOF 2
ENDMDL
MODEL 9
REMARK VINA RESULT:      -3.8      2.694      3.554
REMARK  2 active torsions:
REMARK  status: ('A' for Active; 'I' for Inactive)
REMARK    1  A    between atoms: C_1  and  C_2 
REMARK    2  A    between atoms: C_1  and  O_10 
ROOT
HETATM    1  C   UNL     1      64.661   7.350   6.083  1.00  0.00     0.041 A 
HETATM    2  C   UNL     1      62.344   7.110   5.407  1.00  0.00     0.041 A 
HETATM    3  C   UNL     1      63.422   6.712   6.205  1.00  0.00     0.042 A 
HETATM    4  C   UNL     1      62.479   8.157   4.480  1.00  0.00    -0.040 A 
HETATM    5  C   UNL     1      64.813   8.375   5.140  1.00  0.00     0.018 A 
HETATM    6  C   UNL     1      63.731   8.774   4.348  1.00  0.00     0.009 A 
HETATM    7 CL   UNL     1      60.847   6.269   5.602  1.00  0.00    -0.084 Cl
HETATM    8  C   UNL     1      61.325   8.626   3.639  1.00  0.00     0.050 C 
ENDROOT
BRANCH   1   9
HETATM    9  C   UNL     1      65.833   6.986   6.931  1.00  0.00     0.293 C 
HETATM   10  O   UNL     1      66.965   6.863   6.494  1.00  0.00    -0.259 OA
BRANCH   9  11
HETATM   11  O   UNL     1      65.453   6.828   8.222  1.00  0.00    -0.323 OA
HETATM   12  C   UNL     1      66.474   6.388   9.122  1.00  0.00     0.213 C 
ENDBRANCH   9  11
ENDBRANCH   1   9
TORSDOF 2
ENDMDL
