MODEL 1
REMARK VINA RESULT:      -4.7      0.000      0.000
REMARK  1 active torsions:
REMARK  status: ('A' for Active; 'I' for Inactive)
REMARK    1  A    between atoms: C_3  and  N_6 
ROOT
HETATM    1  C   UNL     1      62.560  10.804   4.990  1.00  0.00     0.145 A 
HETATM    2  C   UNL     1      62.069  11.650   4.001  1.00  0.00     0.086 A 
HETATM    3  C   UNL     1      62.821   9.436   4.762  1.00  0.00     0.066 A 
HETATM    4  C   UNL     1      62.565   8.947   3.476  1.00  0.00     0.035 A 
HETATM    5  C   UNL     1      61.828  11.129   2.743  1.00  0.00     0.119 A 
HETATM    6  F   UNL     1      62.794  11.319   6.210  1.00  0.00    -0.204 F 
HETATM    7  C   UNL     1      62.070   9.789   2.471  1.00  0.00     0.044 A 
HETATM    8  F   UNL     1      61.357  11.924   1.775  1.00  0.00    -0.206 F 
ENDROOT
BRANCH   3   9
HETATM    9  N   UNL     1      63.327   8.670   5.794  1.00  0.00    -0.392 N 
HETATM   10  C   UNL     1      62.924   7.342   6.185  1.00  0.00     0.146 C 
HETATM   11  H   UNL     1      64.047   9.080   6.325  1.00  0.00     0.159 HD
ENDBRANCH   3   9
TORSDOF 1
ENDMDL
MODEL 2
REMARK VINA RESULT:      -4.5      1.746      3.548
REMARK  1 active torsions:
REMARK  status: ('A' for Active; 'I' for Inactive)
REMARK    1  A    between atoms: C_3  and  N_6 
ROOT
HETATM    1  C   UNL     1      61.850  11.071   2.779  1.00  0.00     0.145 A 
HETATM    2  C   UNL     1      62.070  11.605   4.045  1.00  0.00     0.086 A 
HETATM    3  C   UNL     1      62.171   9.737   2.449  1.00  0.00     0.066 A 
HETATM    4  C   UNL     1      62.729   8.949   3.462  1.00  0.00     0.035 A 
HETATM    5  C   UNL     1      62.624  10.795   5.019  1.00  0.00     0.119 A 
HETATM    6  F   UNL     1      61.309  11.865   1.839  1.00  0.00    -0.204 F 
HETATM    7  C   UNL     1      62.955   9.475   4.741  1.00  0.00     0.044 A 
HETATM    8  F   UNL     1      62.844  11.286   6.245  1.00  0.00    -0.206 F 
ENDROOT
BRANCH   3   9
HETATM    9  N   UNL     1      61.902   9.281   1.174  1.00  0.00    -0.392 N 
HETATM   10  C   UNL     1      60.863   8.366   0.767  1.00  0.00     0.146 C 
HETATM   11  H   UNL     1      62.487   9.619   0.459  1.00  0.00     0.159 HD
ENDBRANCH   3   9
TORSDOF 1
ENDMDL
MODEL 3
REMARK VINA RESULT:      -4.5      1.735      2.456
REMARK  1 active torsions:
REMARK  status: ('A' for Active; 'I' for Inactive)
REMARK    1  A    between atoms: C_3  and  N_6 
ROOT
HETATM    1  C   UNL     1      62.442   9.014   2.421  1.00  0.00     0.145 A 
HETATM    2  C   UNL     1      62.039  10.106   1.661  1.00  0.00     0.086 A 
HETATM    3  C   UNL     1      62.617   9.082   3.820  1.00  0.00     0.066 A 
HETATM    4  C   UNL     1      62.363  10.314   4.432  1.00  0.00     0.035 A 
HETATM    5  C   UNL     1      61.798  11.307   2.302  1.00  0.00     0.119 A 
HETATM    6  F   UNL     1      62.671   7.849   1.791  1.00  0.00    -0.204 F 
HETATM    7  C   UNL     1      61.956  11.423   3.677  1.00  0.00     0.044 A 
HETATM    8  F   UNL     1      61.408  12.373   1.592  1.00  0.00    -0.206 F 
ENDROOT
BRANCH   3   9
HETATM    9  N   UNL     1      63.000   7.944   4.502  1.00  0.00    -0.392 N 
HETATM   10  C   UNL     1      62.578   7.520   5.815  1.00  0.00     0.146 C 
HETATM   11  H   UNL     1      63.636   7.354   4.038  1.00  0.00     0.159 HD
ENDBRANCH   3   9
TORSDOF 1
ENDMDL
MODEL 4
REMARK VINA RESULT:      -4.1      2.414      3.197
REMARK  1 active torsions:
REMARK  status: ('A' for Active; 'I' for Inactive)
REMARK    1  A    between atoms: C_3  and  N_6 
ROOT
HETATM    1  C   UNL     1      62.523   8.854   3.569  1.00  0.00     0.145 A 
HETATM    2  C   UNL     1      62.352  10.052   4.257  1.00  0.00     0.086 A 
HETATM    3  C   UNL     1      62.369   8.751   2.170  1.00  0.00     0.066 A 
HETATM    4  C   UNL     1      62.032   9.920   1.481  1.00  0.00     0.035 A 
HETATM    5  C   UNL     1      62.019  11.185   3.539  1.00  0.00     0.119 A 
HETATM    6  F   UNL     1      62.849   7.757   4.273  1.00  0.00    -0.204 F 
HETATM    7  C   UNL     1      61.857  11.133   2.161  1.00  0.00     0.044 A 
HETATM    8  F   UNL     1      61.850  12.350   4.179  1.00  0.00    -0.206 F 
ENDROOT
BRANCH   3   9
HETATM    9  N   UNL     1      62.576   7.527   1.564  1.00  0.00    -0.392 N 
HETATM   10  C   UNL     1      62.210   7.135   0.225  1.00  0.00     0.146 C 
HETATM   11  H   UNL     1      63.026   6.843   2.109  1.00  0.00     0.159 HD
ENDBRANCH   3   9
TORSDOF 1
ENDMDL
MODEL 5
REMARK VINA RESULT:      -4.1      2.257      3.793
REMARK  1 active torsions:
REMARK  status: ('A' for Active; 'I' for Inactive)
REMARK    1  A    between atoms: C_3  and  N_6 
ROOT
HETATM    1  C   UNL     1      62.779  10.085   4.542  1.00  0.00     0.145 A 
HETATM    2  C   UNL     1      63.644   9.213   5.196  1.00  0.00     0.086 A 
HETATM    3  C   UNL     1      62.225   9.801   3.275  1.00  0.00     0.066 A 
HETATM    4  C   UNL     1      62.582   8.584   2.685  1.00  0.00     0.035 A 
HETATM    5  C   UNL     1      63.973   8.020   4.579  1.00  0.00     0.119 A 
HETATM    6  F   UNL     1      62.462  11.241   5.149  1.00  0.00    -0.204 F 
HETATM    7  C   UNL     1      63.453   7.697   3.333  1.00  0.00     0.044 A 
HETATM    8  F   UNL     1      64.803   7.165   5.189  1.00  0.00    -0.206 F 
ENDROOT
BRANCH   3   9
HETATM    9  N   UNL     1      61.359  10.712   2.705  1.00  0.00    -0.392 N 
HETATM   10  C   UNL     1      61.695  11.906   1.968  1.00  0.00     0.146 C 
HETATM   11  H   UNL     1      60.399  10.526   2.814  1.00  0.00     0.159 HD
ENDBRANCH   3   9
TORSDOF 1
ENDMDL
MODEL 6
REMARK VINA RESULT:      -4.0      1.723      2.285
REMARK  1 active torsions:
REMARK  status: ('A' for Active; 'I' for Inactive)
REMARK    1  A    between atoms: C_3  and  N_6 
ROOT
HETATM    1  C   UNL     1      62.304   8.537   3.997  1.00  0.00     0.145 A 
HETATM    2  C   UNL     1      61.845   9.437   3.040  1.00  0.00     0.086 A 
HETATM    3  C   UNL     1      62.842   8.950   5.234  1.00  0.00     0.066 A 
HETATM    4  C   UNL     1      62.897  10.327   5.475  1.00  0.00     0.035 A 
HETATM    5  C   UNL     1      61.918  10.790   3.315  1.00  0.00     0.119 A 
HETATM    6  F   UNL     1      62.228   7.224   3.723  1.00  0.00    -0.204 F 
HETATM    7  C   UNL     1      62.438  11.244   4.519  1.00  0.00     0.044 A 
HETATM    8  F   UNL     1      61.481  11.675   2.410  1.00  0.00    -0.206 F 
ENDROOT
BRANCH   3   9
HETATM    9  N   UNL     1      63.257   7.990   6.136  1.00  0.00    -0.392 N 
HETATM   10  C   UNL     1      64.476   7.220   6.105  1.00  0.00     0.146 C 
HETATM   11  H   UNL     1      62.648   7.810   6.889  1.00  0.00     0.159 HD
ENDBRANCH   3   9
TORSDOF 1
ENDMDL
MODEL 7
REMARK VINA RESULT:      -3.6      2.951      4.722
REMARK  1 active torsions:
REMARK  status: ('A' for Active; 'I' for Inactive)
REMARK    1  A    between atoms: C_3  and  N_6 
ROOT
HETATM    1  C   UNL     1      62.403   8.251   1.768  1.00  0.00     0.145 A 
HETATM    2  C   UNL     1      63.179   7.170   2.172  1.00  0.00     0.086 A 
HETATM    3  C   UNL     1      62.172   9.373   2.593  1.00  0.00     0.066 A 
HETATM    4  C   UNL     1      62.765   9.362   3.859  1.00  0.00     0.035 A 
HETATM    5  C   UNL     1      63.748   7.196   3.432  1.00  0.00     0.119 A 
HETATM    6  F   UNL     1      61.856   8.219   0.541  1.00  0.00    -0.204 F 
HETATM    7  C   UNL     1      63.549   8.279   4.278  1.00  0.00     0.044 A 
HETATM    8  F   UNL     1      64.500   6.168   3.842  1.00  0.00    -0.206 F 
ENDROOT
BRANCH   3   9
HETATM    9  N   UNL     1      61.404  10.413   2.106  1.00  0.00    -0.392 N 
HETATM   10  C   UNL     1      61.738  11.816   2.081  1.00  0.00     0.146 C 
HETATM   11  H   UNL     1      60.527  10.168   1.734  1.00  0.00     0.159 HD
ENDBRANCH   3   9
TORSDOF 1
ENDMDL
MODEL 8
REMARK VINA RESULT:      -3.5     12.444     13.244
REMARK  1 active torsions:
REMARK  status: ('A' for Active; 'I' for Inactive)
REMARK    1  A    between atoms: C_3  and  N_6 
ROOT
HETATM    1  C   UNL     1      58.510   1.699  13.898  1.00  0.00     0.145 A 
HETATM    2  C   UNL     1      59.572   1.319  13.084  1.00  0.00     0.086 A 
HETATM    3  C   UNL     1      57.194   1.853  13.412  1.00  0.00     0.066 A 
HETATM    4  C   UNL     1      56.987   1.603  12.052  1.00  0.00     0.035 A 
HETATM    5  C   UNL     1      59.326   1.081  11.744  1.00  0.00     0.119 A 
HETATM    6  F   UNL     1      58.756   1.926  15.200  1.00  0.00    -0.204 F 
HETATM    7  C   UNL     1      58.048   1.219  11.220  1.00  0.00     0.044 A 
HETATM    8  F   UNL     1      60.332   0.712  10.940  1.00  0.00    -0.206 F 
ENDROOT
BRANCH   3   9
HETATM    9  N   UNL     1      56.194   2.215  14.293  1.00  0.00    -0.392 N 
HETATM   10  C   UNL     1      55.041   3.039  14.026  1.00  0.00     0.146 C 
HETATM   11  H   UNL     1      56.279   1.870  15.211  1.00  0.00     0.159 HD
ENDBRANCH   3   9
TORSDOF 1
ENDMDL
MODEL 9
REMARK VINA RESULT:      -3.3     11.896     13.190
REMARK  1 active torsions:
REMARK  status: ('A' for Active; 'I' for Inactive)
REMARK    1  A    between atoms: C_3  and  N_6 
ROOT
HETATM    1  C   UNL     1      57.695   2.392  11.838  1.00  0.00     0.145 A 
HETATM    2  C   UNL     1      58.985   1.870  11.829  1.00  0.00     0.086 A 
HETATM    3  C   UNL     1      56.863   2.345  12.976  1.00  0.00     0.066 A 
HETATM    4  C   UNL     1      57.390   1.743  14.124  1.00  0.00     0.035 A 
HETATM    5  C   UNL     1      59.470   1.283  12.983  1.00  0.00     0.119 A 
HETATM    6  F   UNL     1      57.232   2.963  10.713  1.00  0.00    -0.204 F 
HETATM    7  C   UNL     1      58.688   1.214  14.128  1.00  0.00     0.044 A 
HETATM    8  F   UNL     1      60.709   0.775  12.999  1.00  0.00    -0.206 F 
ENDROOT
BRANCH   3   9
HETATM    9  N   UNL     1      55.602   2.904  12.906  1.00  0.00    -0.392 N 
HETATM   10  C   UNL     1      54.775   3.352  13.999  1.00  0.00     0.146 C 
HETATM   11  H   UNL     1      55.223   3.009  12.004  1.00  0.00     0.159 HD
ENDBRANCH   3   9
TORSDOF 1
ENDMDL
