MODEL 1
REMARK VINA RESULT:      -4.9      0.000      0.000
REMARK  3 active torsions:
REMARK  status: ('A' for Active; 'I' for Inactive)
REMARK    1  A    between atoms: C_1  and  O_2 
REMARK    2  A    between atoms: O_2  and  C_6 
REMARK    3  A    between atoms: C_7  and  N_8 
ROOT
HETATM    1  C   UNL     1      62.150   9.101   3.220  1.00  0.00     0.078 A 
HETATM    2  C   UNL     1      63.145  10.678   5.336  1.00  0.00     0.025 A 
HETATM    3  C   UNL     1      63.134   8.605   4.077  1.00  0.00     0.039 A 
HETATM    4  C   UNL     1      61.743  10.425   3.361  1.00  0.00     0.039 A 
HETATM    5  C   UNL     1      63.641   9.393   5.114  1.00  0.00     0.031 A 
HETATM    6  C   UNL     1      62.242  11.205   4.412  1.00  0.00     0.031 A 
ENDROOT
BRANCH   1   7
HETATM    7  O   UNL     1      61.725   8.225   2.270  1.00  0.00    -0.255 OA
BRANCH   7   8
HETATM    8  C   UNL     1      62.047   8.470   0.908  1.00  0.00     0.530 C 
HETATM    9  F   UNL     1      62.709   9.625   0.692  1.00  0.00    -0.144 F 
HETATM   10  F   UNL     1      60.895   8.520   0.200  1.00  0.00    -0.144 F 
HETATM   11  F   UNL     1      62.788   7.446   0.430  1.00  0.00    -0.144 F 
ENDBRANCH   7   8
ENDBRANCH   1   7
BRANCH   2  12
HETATM   12  N   UNL     1      63.722  11.497   6.314  1.00  0.00    -0.399 N 
HETATM   13  H   UNL     1      63.443  11.409   7.255  1.00  0.00     0.156 HD
HETATM   14  H   UNL     1      64.405  12.159   6.062  1.00  0.00     0.156 HD
ENDBRANCH   2  12
TORSDOF 3
ENDMDL
MODEL 2
REMARK VINA RESULT:      -4.8      3.619      4.407
REMARK  3 active torsions:
REMARK  status: ('A' for Active; 'I' for Inactive)
REMARK    1  A    between atoms: C_1  and  O_2 
REMARK    2  A    between atoms: O_2  and  C_6 
REMARK    3  A    between atoms: C_7  and  N_8 
ROOT
HETATM    1  C   UNL     1      63.267   8.917   4.956  1.00  0.00     0.078 A 
HETATM    2  C   UNL     1      61.969  10.647   3.145  1.00  0.00     0.025 A 
HETATM    3  C   UNL     1      62.977  10.236   5.312  1.00  0.00     0.039 A 
HETATM    4  C   UNL     1      62.999   8.501   3.654  1.00  0.00     0.039 A 
HETATM    5  C   UNL     1      62.351  11.099   4.409  1.00  0.00     0.031 A 
HETATM    6  C   UNL     1      62.356   9.364   2.758  1.00  0.00     0.031 A 
ENDROOT
BRANCH   1   7
HETATM    7  O   UNL     1      63.853   8.177   5.934  1.00  0.00    -0.255 OA
BRANCH   7   8
HETATM    8  C   UNL     1      65.177   7.699   5.742  1.00  0.00     0.530 C 
HETATM    9  F   UNL     1      65.933   8.467   4.929  1.00  0.00    -0.144 F 
HETATM   10  F   UNL     1      65.111   6.465   5.193  1.00  0.00    -0.144 F 
HETATM   11  F   UNL     1      65.794   7.592   6.939  1.00  0.00    -0.144 F 
ENDBRANCH   7   8
ENDBRANCH   1   7
BRANCH   2  12
HETATM   12  N   UNL     1      61.428  11.539   2.211  1.00  0.00    -0.399 N 
HETATM   13  H   UNL     1      60.486  11.815   2.283  1.00  0.00     0.156 HD
HETATM   14  H   UNL     1      61.991  11.890   1.483  1.00  0.00     0.156 HD
ENDBRANCH   2  12
TORSDOF 3
ENDMDL
MODEL 3
REMARK VINA RESULT:      -4.7      1.197      2.095
REMARK  3 active torsions:
REMARK  status: ('A' for Active; 'I' for Inactive)
REMARK    1  A    between atoms: C_1  and  O_2 
REMARK    2  A    between atoms: O_2  and  C_6 
REMARK    3  A    between atoms: C_7  and  N_8 
ROOT
HETATM    1  C   UNL     1      62.183   9.647   2.724  1.00  0.00     0.078 A 
HETATM    2  C   UNL     1      62.923  10.786   5.196  1.00  0.00     0.025 A 
HETATM    3  C   UNL     1      61.793  10.946   3.057  1.00  0.00     0.039 A 
HETATM    4  C   UNL     1      62.853   8.884   3.677  1.00  0.00     0.039 A 
HETATM    5  C   UNL     1      62.144  11.504   4.289  1.00  0.00     0.031 A 
HETATM    6  C   UNL     1      63.217   9.454   4.904  1.00  0.00     0.031 A 
ENDROOT
BRANCH   1   7
HETATM    7  O   UNL     1      61.799   9.234   1.487  1.00  0.00    -0.255 OA
BRANCH   7   8
HETATM    8  C   UNL     1      60.825   8.207   1.371  1.00  0.00     0.530 C 
HETATM    9  F   UNL     1      59.998   8.101   2.432  1.00  0.00    -0.144 F 
HETATM   10  F   UNL     1      61.466   7.023   1.233  1.00  0.00    -0.144 F 
HETATM   11  F   UNL     1      60.084   8.413   0.260  1.00  0.00    -0.144 F 
ENDBRANCH   7   8
ENDBRANCH   1   7
BRANCH   2  12
HETATM   12  N   UNL     1      63.192  11.312   6.465  1.00  0.00    -0.399 N 
HETATM   13  H   UNL     1      62.454  11.466   7.100  1.00  0.00     0.156 HD
HETATM   14  H   UNL     1      64.117  11.527   6.724  1.00  0.00     0.156 HD
ENDBRANCH   2  12
TORSDOF 3
ENDMDL
MODEL 4
REMARK VINA RESULT:      -4.5      3.822      4.525
REMARK  3 active torsions:
REMARK  status: ('A' for Active; 'I' for Inactive)
REMARK    1  A    between atoms: C_1  and  O_2 
REMARK    2  A    between atoms: O_2  and  C_6 
REMARK    3  A    between atoms: C_7  and  N_8 
ROOT
HETATM    1  C   UNL     1      63.683   8.910   4.935  1.00  0.00     0.078 A 
HETATM    2  C   UNL     1      62.127  10.302   3.040  1.00  0.00     0.025 A 
HETATM    3  C   UNL     1      63.429   8.358   3.677  1.00  0.00     0.039 A 
HETATM    4  C   UNL     1      63.068  10.111   5.277  1.00  0.00     0.039 A 
HETATM    5  C   UNL     1      62.643   9.040   2.745  1.00  0.00     0.031 A 
HETATM    6  C   UNL     1      62.294  10.798   4.333  1.00  0.00     0.031 A 
ENDROOT
BRANCH   1   7
HETATM    7  O   UNL     1      64.483   8.158   5.738  1.00  0.00    -0.255 OA
BRANCH   7   8
HETATM    8  C   UNL     1      63.952   6.987   6.343  1.00  0.00     0.530 C 
HETATM    9  F   UNL     1      62.648   7.075   6.676  1.00  0.00    -0.144 F 
HETATM   10  F   UNL     1      64.648   6.739   7.476  1.00  0.00    -0.144 F 
HETATM   11  F   UNL     1      64.119   5.936   5.511  1.00  0.00    -0.144 F 
ENDBRANCH   7   8
ENDBRANCH   1   7
BRANCH   2  12
HETATM   12  N   UNL     1      61.263  10.938   2.140  1.00  0.00    -0.399 N 
HETATM   13  H   UNL     1      60.782  10.409   1.463  1.00  0.00     0.156 HD
HETATM   14  H   UNL     1      61.135  11.914   2.185  1.00  0.00     0.156 HD
ENDBRANCH   2  12
TORSDOF 3
ENDMDL
MODEL 5
REMARK VINA RESULT:      -4.3      1.507      2.250
REMARK  3 active torsions:
REMARK  status: ('A' for Active; 'I' for Inactive)
REMARK    1  A    between atoms: C_1  and  O_2 
REMARK    2  A    between atoms: O_2  and  C_6 
REMARK    3  A    between atoms: C_7  and  N_8 
ROOT
HETATM    1  C   UNL     1      62.592   8.237   3.251  1.00  0.00     0.078 A 
HETATM    2  C   UNL     1      64.719   8.468   5.089  1.00  0.00     0.025 A 
HETATM    3  C   UNL     1      62.595   9.247   4.215  1.00  0.00     0.039 A 
HETATM    4  C   UNL     1      63.605   7.281   3.279  1.00  0.00     0.039 A 
HETATM    5  C   UNL     1      63.639   9.351   5.138  1.00  0.00     0.031 A 
HETATM    6  C   UNL     1      64.657   7.399   4.195  1.00  0.00     0.031 A 
ENDROOT
BRANCH   1   7
HETATM    7  O   UNL     1      61.533   8.263   2.399  1.00  0.00    -0.255 OA
BRANCH   7   8
HETATM    8  C   UNL     1      61.601   9.074   1.234  1.00  0.00     0.530 C 
HETATM    9  F   UNL     1      61.653  10.399   1.481  1.00  0.00    -0.144 F 
HETATM   10  F   UNL     1      60.497   8.840   0.487  1.00  0.00    -0.144 F 
HETATM   11  F   UNL     1      62.682   8.723   0.504  1.00  0.00    -0.144 F 
ENDBRANCH   7   8
ENDBRANCH   1   7
BRANCH   2  12
HETATM   12  N   UNL     1      65.714   8.517   6.073  1.00  0.00    -0.399 N 
HETATM   13  H   UNL     1      66.556   8.022   5.946  1.00  0.00     0.156 HD
HETATM   14  H   UNL     1      65.572   9.046   6.891  1.00  0.00     0.156 HD
ENDBRANCH   2  12
TORSDOF 3
ENDMDL
MODEL 6
REMARK VINA RESULT:      -4.3      4.404      5.262
REMARK  3 active torsions:
REMARK  status: ('A' for Active; 'I' for Inactive)
REMARK    1  A    between atoms: C_1  and  O_2 
REMARK    2  A    between atoms: O_2  and  C_6 
REMARK    3  A    between atoms: C_7  and  N_8 
ROOT
HETATM    1  C   UNL     1      64.607   8.526   4.715  1.00  0.00     0.078 A 
HETATM    2  C   UNL     1      61.918   8.649   3.874  1.00  0.00     0.025 A 
HETATM    3  C   UNL     1      63.801   9.613   5.059  1.00  0.00     0.039 A 
HETATM    4  C   UNL     1      64.092   7.554   3.861  1.00  0.00     0.039 A 
HETATM    5  C   UNL     1      62.474   9.684   4.627  1.00  0.00     0.031 A 
HETATM    6  C   UNL     1      62.757   7.621   3.444  1.00  0.00     0.031 A 
ENDROOT
BRANCH   1   7
HETATM    7  O   UNL     1      65.868   8.567   5.220  1.00  0.00    -0.255 OA
BRANCH   7   8
HETATM    8  C   UNL     1      66.196   7.749   6.334  1.00  0.00     0.530 C 
HETATM    9  F   UNL     1      65.131   7.196   6.951  1.00  0.00    -0.144 F 
HETATM   10  F   UNL     1      66.847   8.508   7.245  1.00  0.00    -0.144 F 
HETATM   11  F   UNL     1      67.031   6.763   5.938  1.00  0.00    -0.144 F 
ENDBRANCH   7   8
ENDBRANCH   1   7
BRANCH   2  12
HETATM   12  N   UNL     1      60.619   8.768   3.364  1.00  0.00    -0.399 N 
HETATM   13  H   UNL     1      60.463   8.690   2.394  1.00  0.00     0.156 HD
HETATM   14  H   UNL     1      59.863   8.929   3.974  1.00  0.00     0.156 HD
ENDBRANCH   2  12
TORSDOF 3
ENDMDL
MODEL 7
REMARK VINA RESULT:      -4.2      3.418      4.094
REMARK  3 active torsions:
REMARK  status: ('A' for Active; 'I' for Inactive)
REMARK    1  A    between atoms: C_1  and  O_2 
REMARK    2  A    between atoms: O_2  and  C_6 
REMARK    3  A    between atoms: C_7  and  N_8 
ROOT
HETATM    1  C   UNL     1      63.099   8.648   4.422  1.00  0.00     0.078 A 
HETATM    2  C   UNL     1      61.920  10.711   2.903  1.00  0.00     0.025 A 
HETATM    3  C   UNL     1      62.865   9.905   4.985  1.00  0.00     0.039 A 
HETATM    4  C   UNL     1      62.838   8.463   3.067  1.00  0.00     0.039 A 
HETATM    5  C   UNL     1      62.298  10.933   4.227  1.00  0.00     0.031 A 
HETATM    6  C   UNL     1      62.255   9.490   2.316  1.00  0.00     0.031 A 
ENDROOT
BRANCH   1   7
HETATM    7  O   UNL     1      63.631   7.731   5.273  1.00  0.00    -0.255 OA
BRANCH   7   8
HETATM    8  C   UNL     1      62.868   6.584   5.620  1.00  0.00     0.530 C 
HETATM    9  F   UNL     1      62.801   5.647   4.653  1.00  0.00    -0.144 F 
HETATM   10  F   UNL     1      61.604   6.979   5.896  1.00  0.00    -0.144 F 
HETATM   11  F   UNL     1      63.384   6.023   6.736  1.00  0.00    -0.144 F 
ENDBRANCH   7   8
ENDBRANCH   1   7
BRANCH   2  12
HETATM   12  N   UNL     1      61.441  11.769   2.120  1.00  0.00    -0.399 N 
HETATM   13  H   UNL     1      60.564  11.695   1.677  1.00  0.00     0.156 HD
HETATM   14  H   UNL     1      61.980  12.586   2.013  1.00  0.00     0.156 HD
ENDBRANCH   2  12
TORSDOF 3
ENDMDL
MODEL 8
REMARK VINA RESULT:      -4.0      5.746      6.733
REMARK  3 active torsions:
REMARK  status: ('A' for Active; 'I' for Inactive)
REMARK    1  A    between atoms: C_1  and  O_2 
REMARK    2  A    between atoms: O_2  and  C_6 
REMARK    3  A    between atoms: C_7  and  N_8 
ROOT
HETATM    1  C   UNL     1      65.743   6.699   7.323  1.00  0.00     0.078 A 
HETATM    2  C   UNL     1      67.251   4.666   8.568  1.00  0.00     0.025 A 
HETATM    3  C   UNL     1      65.538   5.356   6.997  1.00  0.00     0.039 A 
HETATM    4  C   UNL     1      66.778   7.025   8.196  1.00  0.00     0.039 A 
HETATM    5  C   UNL     1      66.298   4.351   7.600  1.00  0.00     0.031 A 
HETATM    6  C   UNL     1      67.525   6.013   8.810  1.00  0.00     0.031 A 
ENDROOT
BRANCH   1   7
HETATM    7  O   UNL     1      64.921   7.573   6.685  1.00  0.00    -0.255 OA
BRANCH   7   8
HETATM    8  C   UNL     1      65.278   8.042   5.392  1.00  0.00     0.530 C 
HETATM    9  F   UNL     1      66.606   8.168   5.193  1.00  0.00    -0.144 F 
HETATM   10  F   UNL     1      64.720   9.262   5.212  1.00  0.00    -0.144 F 
HETATM   11  F   UNL     1      64.773   7.208   4.457  1.00  0.00    -0.144 F 
ENDBRANCH   7   8
ENDBRANCH   1   7
BRANCH   2  12
HETATM   12  N   UNL     1      68.075   3.666   9.099  1.00  0.00    -0.399 N 
HETATM   13  H   UNL     1      69.054   3.770   9.073  1.00  0.00     0.156 HD
HETATM   14  H   UNL     1      67.675   2.860   9.499  1.00  0.00     0.156 HD
ENDBRANCH   2  12
TORSDOF 3
ENDMDL
MODEL 9
REMARK VINA RESULT:      -4.0      3.603      4.452
REMARK  3 active torsions:
REMARK  status: ('A' for Active; 'I' for Inactive)
REMARK    1  A    between atoms: C_1  and  O_2 
REMARK    2  A    between atoms: O_2  and  C_6 
REMARK    3  A    between atoms: C_7  and  N_8 
ROOT
HETATM    1  C   UNL     1      64.722   7.529   5.188  1.00  0.00     0.078 A 
HETATM    2  C   UNL     1      66.557   7.145   7.295  1.00  0.00     0.025 A 
HETATM    3  C   UNL     1      65.964   8.169   5.179  1.00  0.00     0.039 A 
HETATM    4  C   UNL     1      64.362   6.782   6.306  1.00  0.00     0.039 A 
HETATM    5  C   UNL     1      66.865   7.994   6.232  1.00  0.00     0.031 A 
HETATM    6  C   UNL     1      65.275   6.596   7.351  1.00  0.00     0.031 A 
ENDROOT
BRANCH   1   7
HETATM    7  O   UNL     1      63.951   7.763   4.093  1.00  0.00    -0.255 OA
BRANCH   7   8
HETATM    8  C   UNL     1      62.952   8.771   4.152  1.00  0.00     0.530 C 
HETATM    9  F   UNL     1      63.181   9.728   5.074  1.00  0.00    -0.144 F 
HETATM   10  F   UNL     1      61.771   8.185   4.456  1.00  0.00    -0.144 F 
HETATM   11  F   UNL     1      62.830   9.354   2.939  1.00  0.00    -0.144 F 
ENDBRANCH   7   8
ENDBRANCH   1   7
BRANCH   2  12
HETATM   12  N   UNL     1      67.421   7.047   8.392  1.00  0.00    -0.399 N 
HETATM   13  H   UNL     1      68.375   6.847   8.250  1.00  0.00     0.156 HD
HETATM   14  H   UNL     1      67.076   7.178   9.305  1.00  0.00     0.156 HD
ENDBRANCH   2  12
TORSDOF 3
ENDMDL
