MODEL 1
REMARK VINA RESULT:      -5.0      0.000      0.000
REMARK  2 active torsions:
REMARK  status: ('A' for Active; 'I' for Inactive)
REMARK    1  A    between atoms: C_1  and  C_3 
REMARK    2  A    between atoms: C_3  and  O_10 
ROOT
HETATM    1  C   UNL     1      62.737   9.459   4.328  1.00  0.00     0.061 A 
HETATM    2  C   UNL     1      62.564   9.103   2.980  1.00  0.00     0.053 A 
HETATM    3  C   UNL     1      62.436  10.774   4.730  1.00  0.00     0.022 A 
HETATM    4  C   UNL     1      62.093  10.045   2.058  1.00  0.00     0.067 A 
HETATM    5  C   UNL     1      61.799  11.334   2.478  1.00  0.00     0.118 A 
HETATM    6 CL   UNL     1      62.940   7.538   2.346  1.00  0.00    -0.083 Cl
HETATM    7  C   UNL     1      61.966  11.710   3.804  1.00  0.00     0.043 A 
HETATM    8  F   UNL     1      61.347  12.231   1.592  1.00  0.00    -0.206 F 
ENDROOT
BRANCH   1   9
HETATM    9  C   UNL     1      63.181   8.467   5.344  1.00  0.00     0.294 C 
HETATM   10  O   UNL     1      62.512   7.521   5.725  1.00  0.00    -0.259 OA
BRANCH   9  11
HETATM   11  O   UNL     1      64.430   8.770   5.787  1.00  0.00    -0.322 OA
HETATM   12  C   UNL     1      65.464   8.088   5.070  1.00  0.00     0.213 C 
ENDBRANCH   9  11
ENDBRANCH   1   9
TORSDOF 2
ENDMDL
MODEL 2
REMARK VINA RESULT:      -4.9      1.937      2.506
REMARK  2 active torsions:
REMARK  status: ('A' for Active; 'I' for Inactive)
REMARK    1  A    between atoms: C_1  and  C_3 
REMARK    2  A    between atoms: C_3  and  O_10 
ROOT
HETATM    1  C   UNL     1      63.399   8.658   4.546  1.00  0.00     0.061 A 
HETATM    2  C   UNL     1      62.784   9.908   4.369  1.00  0.00     0.053 A 
HETATM    3  C   UNL     1      63.341   7.715   3.503  1.00  0.00     0.022 A 
HETATM    4  C   UNL     1      62.130  10.207   3.167  1.00  0.00     0.067 A 
HETATM    5  C   UNL     1      62.088   9.263   2.151  1.00  0.00     0.118 A 
HETATM    6 CL   UNL     1      62.741  11.137   5.586  1.00  0.00    -0.083 Cl
HETATM    7  C   UNL     1      62.686   8.020   2.305  1.00  0.00     0.043 A 
HETATM    8  F   UNL     1      61.463   9.555   1.004  1.00  0.00    -0.206 F 
ENDROOT
BRANCH   1   9
HETATM    9  C   UNL     1      64.151   8.329   5.787  1.00  0.00     0.294 C 
HETATM   10  O   UNL     1      63.727   7.620   6.685  1.00  0.00    -0.259 OA
BRANCH   9  11
HETATM   11  O   UNL     1      65.368   8.934   5.778  1.00  0.00    -0.322 OA
HETATM   12  C   UNL     1      66.422   8.092   6.254  1.00  0.00     0.213 C 
ENDBRANCH   9  11
ENDBRANCH   1   9
TORSDOF 2
ENDMDL
MODEL 3
REMARK VINA RESULT:      -4.5      2.836      3.935
REMARK  2 active torsions:
REMARK  status: ('A' for Active; 'I' for Inactive)
REMARK    1  A    between atoms: C_1  and  C_3 
REMARK    2  A    between atoms: C_3  and  O_10 
ROOT
HETATM    1  C   UNL     1      62.098   9.603   2.738  1.00  0.00     0.061 A 
HETATM    2  C   UNL     1      62.841   8.912   3.709  1.00  0.00     0.053 A 
HETATM    3  C   UNL     1      61.709  10.931   2.994  1.00  0.00     0.022 A 
HETATM    4  C   UNL     1      63.191   9.544   4.909  1.00  0.00     0.067 A 
HETATM    5  C   UNL     1      62.800  10.855   5.138  1.00  0.00     0.118 A 
HETATM    6 CL   UNL     1      63.341   7.265   3.541  1.00  0.00    -0.083 Cl
HETATM    7  C   UNL     1      62.062  11.557   4.194  1.00  0.00     0.043 A 
HETATM    8  F   UNL     1      63.138  11.455   6.286  1.00  0.00    -0.206 F 
ENDROOT
BRANCH   1   9
HETATM    9  C   UNL     1      61.759   8.981   1.430  1.00  0.00     0.294 C 
HETATM   10  O   UNL     1      62.442   9.073   0.423  1.00  0.00    -0.259 OA
BRANCH   9  11
HETATM   11  O   UNL     1      60.583   8.305   1.517  1.00  0.00    -0.322 OA
HETATM   12  C   UNL     1      60.132   7.791   0.260  1.00  0.00     0.213 C 
ENDBRANCH   9  11
ENDBRANCH   1   9
TORSDOF 2
ENDMDL
MODEL 4
REMARK VINA RESULT:      -4.4      1.517      1.971
REMARK  2 active torsions:
REMARK  status: ('A' for Active; 'I' for Inactive)
REMARK    1  A    between atoms: C_1  and  C_3 
REMARK    2  A    between atoms: C_3  and  O_10 
ROOT
HETATM    1  C   UNL     1      62.640   8.594   3.293  1.00  0.00     0.061 A 
HETATM    2  C   UNL     1      62.389   8.732   1.918  1.00  0.00     0.053 A 
HETATM    3  C   UNL     1      62.487   9.716   4.130  1.00  0.00     0.022 A 
HETATM    4  C   UNL     1      61.988   9.968   1.395  1.00  0.00     0.067 A 
HETATM    5  C   UNL     1      61.840  11.059   2.240  1.00  0.00     0.118 A 
HETATM    6 CL   UNL     1      62.583   7.449   0.774  1.00  0.00    -0.083 Cl
HETATM    7  C   UNL     1      62.086  10.947   3.602  1.00  0.00     0.043 A 
HETATM    8  F   UNL     1      61.455  12.238   1.735  1.00  0.00    -0.206 F 
ENDROOT
BRANCH   1   9
HETATM    9  C   UNL     1      63.012   7.283   3.888  1.00  0.00     0.294 C 
HETATM   10  O   UNL     1      64.146   6.836   3.921  1.00  0.00    -0.259 OA
BRANCH   9  11
HETATM   11  O   UNL     1      61.910   6.658   4.382  1.00  0.00    -0.322 OA
HETATM   12  C   UNL     1      62.006   6.364   5.779  1.00  0.00     0.213 C 
ENDBRANCH   9  11
ENDBRANCH   1   9
TORSDOF 2
ENDMDL
MODEL 5
REMARK VINA RESULT:      -4.4      1.825      2.564
REMARK  2 active torsions:
REMARK  status: ('A' for Active; 'I' for Inactive)
REMARK    1  A    between atoms: C_1  and  C_3 
REMARK    2  A    between atoms: C_3  and  O_10 
ROOT
HETATM    1  C   UNL     1      62.696   8.746   3.259  1.00  0.00     0.061 A 
HETATM    2  C   UNL     1      62.559   9.890   4.061  1.00  0.00     0.053 A 
HETATM    3  C   UNL     1      62.369   8.828   1.892  1.00  0.00     0.022 A 
HETATM    4  C   UNL     1      62.108  11.093   3.502  1.00  0.00     0.067 A 
HETATM    5  C   UNL     1      61.795  11.151   2.151  1.00  0.00     0.118 A 
HETATM    6 CL   UNL     1      62.881   9.915   5.760  1.00  0.00    -0.083 Cl
HETATM    7  C   UNL     1      61.919  10.031   1.339  1.00  0.00     0.043 A 
HETATM    8  F   UNL     1      61.367  12.303   1.621  1.00  0.00    -0.206 F 
ENDROOT
BRANCH   1   9
HETATM    9  C   UNL     1      63.226   7.469   3.808  1.00  0.00     0.294 C 
HETATM   10  O   UNL     1      64.394   7.123   3.749  1.00  0.00    -0.259 OA
BRANCH   9  11
HETATM   11  O   UNL     1      62.225   6.747   4.378  1.00  0.00    -0.322 OA
HETATM   12  C   UNL     1      62.535   6.296   5.700  1.00  0.00     0.213 C 
ENDBRANCH   9  11
ENDBRANCH   1   9
TORSDOF 2
ENDMDL
MODEL 6
REMARK VINA RESULT:      -4.3      1.898      2.139
REMARK  2 active torsions:
REMARK  status: ('A' for Active; 'I' for Inactive)
REMARK    1  A    between atoms: C_1  and  C_3 
REMARK    2  A    between atoms: C_3  and  O_10 
ROOT
HETATM    1  C   UNL     1      62.833   8.522   3.759  1.00  0.00     0.061 A 
HETATM    2  C   UNL     1      62.224   9.322   2.779  1.00  0.00     0.053 A 
HETATM    3  C   UNL     1      63.151   9.094   5.005  1.00  0.00     0.022 A 
HETATM    4  C   UNL     1      61.936  10.667   3.046  1.00  0.00     0.067 A 
HETATM    5  C   UNL     1      62.256  11.208   4.282  1.00  0.00     0.118 A 
HETATM    6 CL   UNL     1      61.824   8.758   1.194  1.00  0.00    -0.083 Cl
HETATM    7  C   UNL     1      62.861  10.438   5.265  1.00  0.00     0.043 A 
HETATM    8  F   UNL     1      61.977  12.493   4.532  1.00  0.00    -0.206 F 
ENDROOT
BRANCH   1   9
HETATM    9  C   UNL     1      63.100   7.077   3.529  1.00  0.00     0.294 C 
HETATM   10  O   UNL     1      62.370   6.172   3.896  1.00  0.00    -0.259 OA
BRANCH   9  11
HETATM   11  O   UNL     1      64.272   6.913   2.860  1.00  0.00    -0.322 OA
HETATM   12  C   UNL     1      65.312   6.355   3.669  1.00  0.00     0.213 C 
ENDBRANCH   9  11
ENDBRANCH   1   9
TORSDOF 2
ENDMDL
MODEL 7
REMARK VINA RESULT:      -3.9      3.454      4.817
REMARK  2 active torsions:
REMARK  status: ('A' for Active; 'I' for Inactive)
REMARK    1  A    between atoms: C_1  and  C_3 
REMARK    2  A    between atoms: C_3  and  O_10 
ROOT
HETATM    1  C   UNL     1      62.737   8.520   2.789  1.00  0.00     0.061 A 
HETATM    2  C   UNL     1      62.785   9.435   3.854  1.00  0.00     0.053 A 
HETATM    3  C   UNL     1      63.439   7.305   2.902  1.00  0.00     0.022 A 
HETATM    4  C   UNL     1      63.517   9.133   5.009  1.00  0.00     0.067 A 
HETATM    5  C   UNL     1      64.198   7.928   5.100  1.00  0.00     0.118 A 
HETATM    6 CL   UNL     1      62.009  10.980   3.826  1.00  0.00    -0.083 Cl
HETATM    7  C   UNL     1      64.168   7.010   4.059  1.00  0.00     0.043 A 
HETATM    8  F   UNL     1      64.894   7.644   6.207  1.00  0.00    -0.206 F 
ENDROOT
BRANCH   1   9
HETATM    9  C   UNL     1      61.924   8.784   1.572  1.00  0.00     0.294 C 
HETATM   10  O   UNL     1      62.381   9.137   0.498  1.00  0.00    -0.259 OA
BRANCH   9  11
HETATM   11  O   UNL     1      60.605   8.581   1.831  1.00  0.00    -0.322 OA
HETATM   12  C   UNL     1      59.928   7.869   0.791  1.00  0.00     0.213 C 
ENDBRANCH   9  11
ENDBRANCH   1   9
TORSDOF 2
ENDMDL
MODEL 8
REMARK VINA RESULT:      -3.8      3.589      5.260
REMARK  2 active torsions:
REMARK  status: ('A' for Active; 'I' for Inactive)
REMARK    1  A    between atoms: C_1  and  C_3 
REMARK    2  A    between atoms: C_3  and  O_10 
ROOT
HETATM    1  C   UNL     1      64.222   8.101   5.220  1.00  0.00     0.061 A 
HETATM    2  C   UNL     1      63.826   7.097   6.118  1.00  0.00     0.053 A 
HETATM    3  C   UNL     1      65.564   8.526   5.220  1.00  0.00     0.022 A 
HETATM    4  C   UNL     1      64.759   6.527   6.994  1.00  0.00     0.067 A 
HETATM    5  C   UNL     1      66.078   6.959   6.973  1.00  0.00     0.118 A 
HETATM    6 CL   UNL     1      62.202   6.517   6.254  1.00  0.00    -0.083 Cl
HETATM    7  C   UNL     1      66.491   7.953   6.096  1.00  0.00     0.043 A 
HETATM    8  F   UNL     1      66.966   6.409   7.810  1.00  0.00    -0.206 F 
ENDROOT
BRANCH   1   9
HETATM    9  C   UNL     1      63.270   8.687   4.239  1.00  0.00     0.294 C 
HETATM   10  O   UNL     1      63.163   8.326   3.079  1.00  0.00    -0.259 OA
BRANCH   9  11
HETATM   11  O   UNL     1      62.544   9.680   4.818  1.00  0.00    -0.322 OA
HETATM   12  C   UNL     1      62.068  10.652   3.881  1.00  0.00     0.213 C 
ENDBRANCH   9  11
ENDBRANCH   1   9
TORSDOF 2
ENDMDL
MODEL 9
REMARK VINA RESULT:      -3.8      4.910      7.124
REMARK  2 active torsions:
REMARK  status: ('A' for Active; 'I' for Inactive)
REMARK    1  A    between atoms: C_1  and  C_3 
REMARK    2  A    between atoms: C_3  and  O_10 
ROOT
HETATM    1  C   UNL     1      66.533   6.480   6.626  1.00  0.00     0.061 A 
HETATM    2  C   UNL     1      66.944   5.793   5.472  1.00  0.00     0.053 A 
HETATM    3  C   UNL     1      66.645   5.842   7.876  1.00  0.00     0.022 A 
HETATM    4  C   UNL     1      67.463   4.495   5.572  1.00  0.00     0.067 A 
HETATM    5  C   UNL     1      67.567   3.888   6.816  1.00  0.00     0.118 A 
HETATM    6 CL   UNL     1      66.818   6.441   3.874  1.00  0.00    -0.083 Cl
HETATM    7  C   UNL     1      67.163   4.546   7.969  1.00  0.00     0.043 A 
HETATM    8  F   UNL     1      68.065   2.649   6.905  1.00  0.00    -0.206 F 
ENDROOT
BRANCH   1   9
HETATM    9  C   UNL     1      66.031   7.879   6.561  1.00  0.00     0.294 C 
HETATM   10  O   UNL     1      66.712   8.868   6.775  1.00  0.00    -0.259 OA
BRANCH   9  11
HETATM   11  O   UNL     1      64.711   7.894   6.237  1.00  0.00    -0.322 OA
HETATM   12  C   UNL     1      64.410   8.761   5.138  1.00  0.00     0.213 C 
ENDBRANCH   9  11
ENDBRANCH   1   9
TORSDOF 2
ENDMDL
