MODEL 1
REMARK VINA RESULT:      -5.2      0.000      0.000
REMARK  2 active torsions:
REMARK  status: ('A' for Active; 'I' for Inactive)
REMARK    1  A    between atoms: C_1  and  C_2 
REMARK    2  A    between atoms: C_3  and  C_4 
REMARK       I    between atoms: C_4  and  N_9 
ROOT
HETATM    1  C   UNL     1      62.955   8.398   2.913  1.00  0.00     0.063 A 
HETATM    2  C   UNL     1      62.981   9.246   4.031  1.00  0.00     0.046 A 
HETATM    3  C   UNL     1      62.316   8.860   1.736  1.00  0.00     0.017 A 
HETATM    4  C   UNL     1      62.416  10.536   3.933  1.00  0.00     0.018 A 
HETATM    5  C   UNL     1      61.749  10.131   1.658  1.00  0.00     0.001 A 
HETATM    6  C   UNL     1      61.806  10.975   2.758  1.00  0.00     0.001 A 
ENDROOT
BRANCH   2   7
HETATM    7  C   UNL     1      63.590   8.948   5.355  1.00  0.00     0.250 C 
HETATM    8  O   UNL     1      64.663   9.448   5.676  1.00  0.00    -0.268 OA
HETATM    9  N   UNL     1      62.902   8.177   6.242  1.00  0.00    -0.366 N 
HETATM   10  H   UNL     1      62.040   7.777   5.982  1.00  0.00     0.159 HD
HETATM   11  H   UNL     1      63.266   8.019   7.143  1.00  0.00     0.159 HD
ENDBRANCH   2   7
BRANCH   1  12
HETATM   12  C   UNL     1      63.583   7.033   2.828  1.00  0.00     0.418 C 
HETATM   13  F   UNL     1      64.878   6.939   3.218  1.00  0.00    -0.166 F 
HETATM   14  F   UNL     1      63.552   6.531   1.561  1.00  0.00    -0.166 F 
HETATM   15  F   UNL     1      62.911   6.127   3.595  1.00  0.00    -0.166 F 
ENDBRANCH   1  12
TORSDOF 2
ENDMDL
MODEL 2
REMARK VINA RESULT:      -5.2      1.264      1.637
REMARK  2 active torsions:
REMARK  status: ('A' for Active; 'I' for Inactive)
REMARK    1  A    between atoms: C_1  and  C_2 
REMARK    2  A    between atoms: C_3  and  C_4 
REMARK       I    between atoms: C_4  and  N_9 
ROOT
HETATM    1  C   UNL     1      62.952   8.696   3.233  1.00  0.00     0.063 A 
HETATM    2  C   UNL     1      62.677   9.796   4.059  1.00  0.00     0.046 A 
HETATM    3  C   UNL     1      62.519   8.745   1.885  1.00  0.00     0.017 A 
HETATM    4  C   UNL     1      62.023  10.923   3.514  1.00  0.00     0.018 A 
HETATM    5  C   UNL     1      61.861   9.858   1.364  1.00  0.00     0.001 A 
HETATM    6  C   UNL     1      61.620  10.954   2.179  1.00  0.00     0.001 A 
ENDROOT
BRANCH   2   7
HETATM    7  C   UNL     1      63.036   9.937   5.495  1.00  0.00     0.250 C 
HETATM    8  O   UNL     1      62.847   9.015   6.281  1.00  0.00    -0.268 OA
HETATM    9  N   UNL     1      63.654  11.076   5.915  1.00  0.00    -0.366 N 
HETATM   10  H   UNL     1      63.805  11.816   5.283  1.00  0.00     0.159 HD
HETATM   11  H   UNL     1      63.949  11.160   6.851  1.00  0.00     0.159 HD
ENDBRANCH   2   7
BRANCH   1  12
HETATM   12  C   UNL     1      63.710   7.459   3.635  1.00  0.00     0.418 C 
HETATM   13  F   UNL     1      63.080   6.617   4.491  1.00  0.00    -0.166 F 
HETATM   14  F   UNL     1      64.898   7.757   4.233  1.00  0.00    -0.166 F 
HETATM   15  F   UNL     1      64.030   6.696   2.550  1.00  0.00    -0.166 F 
ENDBRANCH   1  12
TORSDOF 2
ENDMDL
MODEL 3
REMARK VINA RESULT:      -4.8      2.403      3.267
REMARK  2 active torsions:
REMARK  status: ('A' for Active; 'I' for Inactive)
REMARK    1  A    between atoms: C_1  and  C_2 
REMARK    2  A    between atoms: C_3  and  C_4 
REMARK       I    between atoms: C_4  and  N_9 
ROOT
HETATM    1  C   UNL     1      62.767   8.955   3.833  1.00  0.00     0.063 A 
HETATM    2  C   UNL     1      62.106   9.719   2.858  1.00  0.00     0.046 A 
HETATM    3  C   UNL     1      63.124   9.586   5.050  1.00  0.00     0.017 A 
HETATM    4  C   UNL     1      61.782  11.065   3.137  1.00  0.00     0.018 A 
HETATM    5  C   UNL     1      62.811  10.920   5.306  1.00  0.00     0.001 A 
HETATM    6  C   UNL     1      62.130  11.660   4.349  1.00  0.00     0.001 A 
ENDROOT
BRANCH   2   7
HETATM    7  C   UNL     1      61.657   9.251   1.520  1.00  0.00     0.250 C 
HETATM    8  O   UNL     1      62.446   9.183   0.584  1.00  0.00    -0.268 OA
HETATM    9  N   UNL     1      60.374   8.819   1.365  1.00  0.00    -0.366 N 
HETATM   10  H   UNL     1      59.742   8.875   2.118  1.00  0.00     0.159 HD
HETATM   11  H   UNL     1      60.079   8.453   0.500  1.00  0.00     0.159 HD
ENDBRANCH   2   7
BRANCH   1  12
HETATM   12  C   UNL     1      63.108   7.494   3.725  1.00  0.00     0.418 C 
HETATM   13  F   UNL     1      62.070   6.645   3.527  1.00  0.00    -0.166 F 
HETATM   14  F   UNL     1      63.744   7.030   4.837  1.00  0.00    -0.166 F 
HETATM   15  F   UNL     1      63.966   7.258   2.690  1.00  0.00    -0.166 F 
ENDBRANCH   1  12
TORSDOF 2
ENDMDL
MODEL 4
REMARK VINA RESULT:      -4.8      2.376      3.223
REMARK  2 active torsions:
REMARK  status: ('A' for Active; 'I' for Inactive)
REMARK    1  A    between atoms: C_1  and  C_2 
REMARK    2  A    between atoms: C_3  and  C_4 
REMARK       I    between atoms: C_4  and  N_9 
ROOT
HETATM    1  C   UNL     1      62.783   9.278   3.745  1.00  0.00     0.063 A 
HETATM    2  C   UNL     1      62.987   8.135   2.955  1.00  0.00     0.046 A 
HETATM    3  C   UNL     1      62.151  10.398   3.152  1.00  0.00     0.017 A 
HETATM    4  C   UNL     1      62.519   8.124   1.623  1.00  0.00     0.018 A 
HETATM    5  C   UNL     1      61.708  10.378   1.831  1.00  0.00     0.001 A 
HETATM    6  C   UNL     1      61.885   9.234   1.066  1.00  0.00     0.001 A 
ENDROOT
BRANCH   2   7
HETATM    7  C   UNL     1      63.635   6.867   3.383  1.00  0.00     0.250 C 
HETATM    8  O   UNL     1      64.856   6.751   3.364  1.00  0.00    -0.268 OA
HETATM    9  N   UNL     1      62.861   5.860   3.875  1.00  0.00    -0.366 N 
HETATM   10  H   UNL     1      61.881   5.955   3.889  1.00  0.00     0.159 HD
HETATM   11  H   UNL     1      63.281   5.037   4.214  1.00  0.00     0.159 HD
ENDBRANCH   2   7
BRANCH   1  12
HETATM   12  C   UNL     1      63.144   9.419   5.199  1.00  0.00     0.418 C 
HETATM   13  F   UNL     1      62.657   8.471   6.037  1.00  0.00    -0.166 F 
HETATM   14  F   UNL     1      62.726  10.608   5.719  1.00  0.00    -0.166 F 
HETATM   15  F   UNL     1      64.496   9.398   5.380  1.00  0.00    -0.166 F 
ENDBRANCH   1  12
TORSDOF 2
ENDMDL
MODEL 5
REMARK VINA RESULT:      -4.7      2.405      3.286
REMARK  2 active torsions:
REMARK  status: ('A' for Active; 'I' for Inactive)
REMARK    1  A    between atoms: C_1  and  C_2 
REMARK    2  A    between atoms: C_3  and  C_4 
REMARK       I    between atoms: C_4  and  N_9 
ROOT
HETATM    1  C   UNL     1      62.906   8.379   3.120  1.00  0.00     0.063 A 
HETATM    2  C   UNL     1      62.201   9.397   2.459  1.00  0.00     0.046 A 
HETATM    3  C   UNL     1      63.160   7.175   2.419  1.00  0.00     0.017 A 
HETATM    4  C   UNL     1      61.810   9.206   1.115  1.00  0.00     0.018 A 
HETATM    5  C   UNL     1      62.755   6.995   1.097  1.00  0.00     0.001 A 
HETATM    6  C   UNL     1      62.085   8.017   0.440  1.00  0.00     0.001 A 
ENDROOT
BRANCH   2   7
HETATM    7  C   UNL     1      61.828  10.723   3.017  1.00  0.00     0.250 C 
HETATM    8  O   UNL     1      61.696  10.878   4.227  1.00  0.00    -0.268 OA
HETATM    9  N   UNL     1      61.712  11.788   2.176  1.00  0.00    -0.366 N 
HETATM   10  H   UNL     1      61.818  11.662   1.205  1.00  0.00     0.159 HD
HETATM   11  H   UNL     1      61.522  12.684   2.538  1.00  0.00     0.159 HD
ENDBRANCH   2   7
BRANCH   1  12
HETATM   12  C   UNL     1      63.463   8.458   4.516  1.00  0.00     0.418 C 
HETATM   13  F   UNL     1      62.559   8.549   5.522  1.00  0.00    -0.166 F 
HETATM   14  F   UNL     1      64.292   9.527   4.680  1.00  0.00    -0.166 F 
HETATM   15  F   UNL     1      64.220   7.362   4.812  1.00  0.00    -0.166 F 
ENDBRANCH   1  12
TORSDOF 2
ENDMDL
MODEL 6
REMARK VINA RESULT:      -4.6      2.212      3.284
REMARK  2 active torsions:
REMARK  status: ('A' for Active; 'I' for Inactive)
REMARK    1  A    between atoms: C_1  and  C_2 
REMARK    2  A    between atoms: C_3  and  C_4 
REMARK       I    between atoms: C_4  and  N_9 
ROOT
HETATM    1  C   UNL     1      62.763   8.393   2.938  1.00  0.00     0.063 A 
HETATM    2  C   UNL     1      63.615   7.938   3.956  1.00  0.00     0.046 A 
HETATM    3  C   UNL     1      62.687   7.640   1.741  1.00  0.00     0.017 A 
HETATM    4  C   UNL     1      64.327   6.733   3.774  1.00  0.00     0.018 A 
HETATM    5  C   UNL     1      63.407   6.458   1.569  1.00  0.00     0.001 A 
HETATM    6  C   UNL     1      64.224   5.999   2.592  1.00  0.00     0.001 A 
ENDROOT
BRANCH   2   7
HETATM    7  C   UNL     1      63.843   8.585   5.276  1.00  0.00     0.250 C 
HETATM    8  O   UNL     1      64.755   9.391   5.428  1.00  0.00    -0.268 OA
HETATM    9  N   UNL     1      62.976   8.334   6.296  1.00  0.00    -0.366 N 
HETATM   10  H   UNL     1      62.245   7.686   6.172  1.00  0.00     0.159 HD
HETATM   11  H   UNL     1      63.082   8.798   7.157  1.00  0.00     0.159 HD
ENDBRANCH   2   7
BRANCH   1  12
HETATM   12  C   UNL     1      61.877   9.608   3.008  1.00  0.00     0.418 C 
HETATM   13  F   UNL     1      62.458  10.756   3.434  1.00  0.00    -0.166 F 
HETATM   14  F   UNL     1      60.809   9.418   3.834  1.00  0.00    -0.166 F 
HETATM   15  F   UNL     1      61.344   9.906   1.788  1.00  0.00    -0.166 F 
ENDBRANCH   1  12
TORSDOF 2
ENDMDL
MODEL 7
REMARK VINA RESULT:      -4.6      5.371      6.967
REMARK  2 active torsions:
REMARK  status: ('A' for Active; 'I' for Inactive)
REMARK    1  A    between atoms: C_1  and  C_2 
REMARK    2  A    between atoms: C_3  and  C_4 
REMARK       I    between atoms: C_4  and  N_9 
ROOT
HETATM    1  C   UNL     1      67.018   5.727   7.678  1.00  0.00     0.063 A 
HETATM    2  C   UNL     1      66.202   6.082   6.593  1.00  0.00     0.046 A 
HETATM    3  C   UNL     1      67.895   4.625   7.525  1.00  0.00     0.017 A 
HETATM    4  C   UNL     1      66.313   5.366   5.382  1.00  0.00     0.018 A 
HETATM    5  C   UNL     1      67.984   3.918   6.327  1.00  0.00     0.001 A 
HETATM    6  C   UNL     1      67.195   4.294   5.249  1.00  0.00     0.001 A 
ENDROOT
BRANCH   2   7
HETATM    7  C   UNL     1      65.214   7.193   6.554  1.00  0.00     0.250 C 
HETATM    8  O   UNL     1      64.107   7.064   7.067  1.00  0.00    -0.268 OA
HETATM    9  N   UNL     1      65.580   8.388   6.013  1.00  0.00    -0.366 N 
HETATM   10  H   UNL     1      66.469   8.489   5.601  1.00  0.00     0.159 HD
HETATM   11  H   UNL     1      64.957   9.149   6.031  1.00  0.00     0.159 HD
ENDBRANCH   2   7
BRANCH   1  12
HETATM   12  C   UNL     1      67.081   6.438   9.003  1.00  0.00     0.418 C 
HETATM   13  F   UNL     1      65.962   6.392   9.767  1.00  0.00    -0.166 F 
HETATM   14  F   UNL     1      67.365   7.764   8.862  1.00  0.00    -0.166 F 
HETATM   15  F   UNL     1      68.075   5.935   9.791  1.00  0.00    -0.166 F 
ENDBRANCH   1  12
TORSDOF 2
ENDMDL
MODEL 8
REMARK VINA RESULT:      -4.5      2.259      3.320
REMARK  2 active torsions:
REMARK  status: ('A' for Active; 'I' for Inactive)
REMARK    1  A    between atoms: C_1  and  C_2 
REMARK    2  A    between atoms: C_3  and  C_4 
REMARK       I    between atoms: C_4  and  N_9 
ROOT
HETATM    1  C   UNL     1      62.785   8.405   3.542  1.00  0.00     0.063 A 
HETATM    2  C   UNL     1      63.345   9.258   4.505  1.00  0.00     0.046 A 
HETATM    3  C   UNL     1      63.499   7.233   3.189  1.00  0.00     0.017 A 
HETATM    4  C   UNL     1      64.566   8.902   5.118  1.00  0.00     0.018 A 
HETATM    5  C   UNL     1      64.711   6.901   3.791  1.00  0.00     0.001 A 
HETATM    6  C   UNL     1      65.243   7.735   4.765  1.00  0.00     0.001 A 
ENDROOT
BRANCH   2   7
HETATM    7  C   UNL     1      62.763  10.533   5.004  1.00  0.00     0.250 C 
HETATM    8  O   UNL     1      62.070  11.233   4.274  1.00  0.00    -0.268 OA
HETATM    9  N   UNL     1      62.941  10.876   6.311  1.00  0.00    -0.366 N 
HETATM   10  H   UNL     1      63.498  10.312   6.896  1.00  0.00     0.159 HD
HETATM   11  H   UNL     1      62.514  11.687   6.669  1.00  0.00     0.159 HD
ENDBRANCH   2   7
BRANCH   1  12
HETATM   12  C   UNL     1      61.457   8.597   2.859  1.00  0.00     0.418 C 
HETATM   13  F   UNL     1      60.391   8.822   3.666  1.00  0.00    -0.166 F 
HETATM   14  F   UNL     1      61.110   7.521   2.098  1.00  0.00    -0.166 F 
HETATM   15  F   UNL     1      61.488   9.656   2.000  1.00  0.00    -0.166 F 
ENDBRANCH   1  12
TORSDOF 2
ENDMDL
MODEL 9
REMARK VINA RESULT:      -4.4      3.139      4.332
REMARK  2 active torsions:
REMARK  status: ('A' for Active; 'I' for Inactive)
REMARK    1  A    between atoms: C_1  and  C_2 
REMARK    2  A    between atoms: C_3  and  C_4 
REMARK       I    between atoms: C_4  and  N_9 
ROOT
HETATM    1  C   UNL     1      63.119   8.987   3.892  1.00  0.00     0.063 A 
HETATM    2  C   UNL     1      63.147   7.871   3.041  1.00  0.00     0.046 A 
HETATM    3  C   UNL     1      64.074   9.057   4.935  1.00  0.00     0.017 A 
HETATM    4  C   UNL     1      64.144   6.888   3.222  1.00  0.00     0.018 A 
HETATM    5  C   UNL     1      65.044   8.072   5.112  1.00  0.00     0.001 A 
HETATM    6  C   UNL     1      65.084   6.987   4.248  1.00  0.00     0.001 A 
ENDROOT
BRANCH   2   7
HETATM    7  C   UNL     1      62.232   7.605   1.899  1.00  0.00     0.250 C 
HETATM    8  O   UNL     1      62.454   8.088   0.794  1.00  0.00    -0.268 OA
HETATM    9  N   UNL     1      61.186   6.750   2.072  1.00  0.00    -0.366 N 
HETATM   10  H   UNL     1      61.009   6.363   2.961  1.00  0.00     0.159 HD
HETATM   11  H   UNL     1      60.606   6.520   1.311  1.00  0.00     0.159 HD
ENDBRANCH   2   7
BRANCH   1  12
HETATM   12  C   UNL     1      62.179  10.156   3.780  1.00  0.00     0.418 C 
HETATM   13  F   UNL     1      62.219  10.854   2.619  1.00  0.00    -0.166 F 
HETATM   14  F   UNL     1      62.387  11.079   4.761  1.00  0.00    -0.166 F 
HETATM   15  F   UNL     1      60.879   9.765   3.919  1.00  0.00    -0.166 F 
ENDBRANCH   1  12
TORSDOF 2
ENDMDL
