MODEL 1
REMARK VINA RESULT:      -4.9      0.000      0.000
REMARK  4 active torsions:
REMARK  status: ('A' for Active; 'I' for Inactive)
REMARK    1  A    between atoms: C_1  and  O_2 
REMARK    2  A    between atoms: O_2  and  C_6 
REMARK    3  A    between atoms: C_7  and  C_13 
REMARK    4  A    between atoms: O_12  and  C_13 
ROOT
HETATM    1  C   UNL     1      62.277   9.034   2.300  1.00  0.00     0.078 A 
HETATM    2  C   UNL     1      62.721  10.509   4.660  1.00  0.00    -0.035 A 
HETATM    3  C   UNL     1      63.021   8.481   3.339  1.00  0.00     0.037 A 
HETATM    4  C   UNL     1      61.815  10.348   2.418  1.00  0.00     0.037 A 
HETATM    5  C   UNL     1      63.227   9.209   4.518  1.00  0.00     0.012 A 
HETATM    6  C   UNL     1      62.029  11.080   3.588  1.00  0.00     0.012 A 
ENDROOT
BRANCH   1   7
HETATM    7  O   UNL     1      61.954   8.429   1.127  1.00  0.00    -0.255 OA
BRANCH   7   8
HETATM    8  C   UNL     1      60.682   7.817   0.986  1.00  0.00     0.530 C 
HETATM    9  F   UNL     1      59.768   8.587   0.358  1.00  0.00    -0.144 F 
HETATM   10  F   UNL     1      60.209   7.464   2.200  1.00  0.00    -0.144 F 
HETATM   11  F   UNL     1      60.837   6.692   0.254  1.00  0.00    -0.144 F 
ENDBRANCH   7   8
ENDBRANCH   1   7
BRANCH   2  12
HETATM   12  C   UNL     1      62.919  11.269   5.944  1.00  0.00     0.202 C 
BRANCH  12  13
HETATM   13  O   UNL     1      64.306  11.384   6.243  1.00  0.00    -0.396 OA
HETATM   14  H   UNL     1      64.421  11.926   7.039  1.00  0.00     0.209 HD
ENDBRANCH  12  13
ENDBRANCH   2  12
TORSDOF 4
ENDMDL
MODEL 2
REMARK VINA RESULT:      -4.8      3.875      5.029
REMARK  4 active torsions:
REMARK  status: ('A' for Active; 'I' for Inactive)
REMARK    1  A    between atoms: C_1  and  O_2 
REMARK    2  A    between atoms: O_2  and  C_6 
REMARK    3  A    between atoms: C_7  and  C_13 
REMARK    4  A    between atoms: O_12  and  C_13 
ROOT
HETATM    1  C   UNL     1      63.515   8.513   5.046  1.00  0.00     0.078 A 
HETATM    2  C   UNL     1      62.263   9.969   2.983  1.00  0.00    -0.035 A 
HETATM    3  C   UNL     1      63.275   7.911   3.813  1.00  0.00     0.037 A 
HETATM    4  C   UNL     1      63.067   9.819   5.263  1.00  0.00     0.037 A 
HETATM    5  C   UNL     1      62.667   8.641   2.784  1.00  0.00     0.012 A 
HETATM    6  C   UNL     1      62.451  10.544   4.242  1.00  0.00     0.012 A 
ENDROOT
BRANCH   1   7
HETATM    7  O   UNL     1      64.138   7.948   6.113  1.00  0.00    -0.255 OA
BRANCH   7   8
HETATM    8  C   UNL     1      65.486   7.521   5.987  1.00  0.00     0.530 C 
HETATM    9  F   UNL     1      65.622   6.272   5.492  1.00  0.00    -0.144 F 
HETATM   10  F   UNL     1      66.102   7.595   7.184  1.00  0.00    -0.144 F 
HETATM   11  F   UNL     1      66.115   8.364   5.139  1.00  0.00    -0.144 F 
ENDBRANCH   7   8
ENDBRANCH   1   7
BRANCH   2  12
HETATM   12  C   UNL     1      61.643  10.754   1.858  1.00  0.00     0.202 C 
BRANCH  12  13
HETATM   13  O   UNL     1      62.085  12.107   1.897  1.00  0.00    -0.396 OA
HETATM   14  H   UNL     1      61.470  12.633   2.431  1.00  0.00     0.209 HD
ENDBRANCH  12  13
ENDBRANCH   2  12
TORSDOF 4
ENDMDL
MODEL 3
REMARK VINA RESULT:      -4.6      2.086      2.967
REMARK  4 active torsions:
REMARK  status: ('A' for Active; 'I' for Inactive)
REMARK    1  A    between atoms: C_1  and  O_2 
REMARK    2  A    between atoms: O_2  and  C_6 
REMARK    3  A    between atoms: C_7  and  C_13 
REMARK    4  A    between atoms: O_12  and  C_13 
ROOT
HETATM    1  C   UNL     1      62.633   8.298   3.284  1.00  0.00     0.078 A 
HETATM    2  C   UNL     1      64.993   8.004   4.797  1.00  0.00    -0.035 A 
HETATM    3  C   UNL     1      62.942   9.219   4.282  1.00  0.00     0.037 A 
HETATM    4  C   UNL     1      63.472   7.196   3.092  1.00  0.00     0.037 A 
HETATM    5  C   UNL     1      64.123   9.080   5.022  1.00  0.00     0.012 A 
HETATM    6  C   UNL     1      64.644   7.050   3.837  1.00  0.00     0.012 A 
ENDROOT
BRANCH   1   7
HETATM    7  O   UNL     1      61.556   8.334   2.456  1.00  0.00    -0.255 OA
BRANCH   7   8
HETATM    8  C   UNL     1      61.586   9.170   1.310  1.00  0.00     0.530 C 
HETATM    9  F   UNL     1      62.698   9.029   0.557  1.00  0.00    -0.144 F 
HETATM   10  F   UNL     1      61.461  10.461   1.683  1.00  0.00    -0.144 F 
HETATM   11  F   UNL     1      60.527   8.855   0.534  1.00  0.00    -0.144 F 
ENDBRANCH   7   8
ENDBRANCH   1   7
BRANCH   2  12
HETATM   12  C   UNL     1      66.276   7.885   5.574  1.00  0.00     0.202 C 
BRANCH  12  13
HETATM   13  O   UNL     1      66.338   8.885   6.585  1.00  0.00    -0.396 OA
HETATM   14  H   UNL     1      67.184   9.354   6.525  1.00  0.00     0.209 HD
ENDBRANCH  12  13
ENDBRANCH   2  12
TORSDOF 4
ENDMDL
MODEL 4
REMARK VINA RESULT:      -4.6      2.116      2.779
REMARK  4 active torsions:
REMARK  status: ('A' for Active; 'I' for Inactive)
REMARK    1  A    between atoms: C_1  and  O_2 
REMARK    2  A    between atoms: O_2  and  C_6 
REMARK    3  A    between atoms: C_7  and  C_13 
REMARK    4  A    between atoms: O_12  and  C_13 
ROOT
HETATM    1  C   UNL     1      62.706   8.144   3.214  1.00  0.00     0.078 A 
HETATM    2  C   UNL     1      65.012   7.940   4.822  1.00  0.00    -0.035 A 
HETATM    3  C   UNL     1      63.604   7.099   3.017  1.00  0.00     0.037 A 
HETATM    4  C   UNL     1      62.999   9.122   4.170  1.00  0.00     0.037 A 
HETATM    5  C   UNL     1      64.741   6.989   3.828  1.00  0.00     0.012 A 
HETATM    6  C   UNL     1      64.138   9.021   4.971  1.00  0.00     0.012 A 
ENDROOT
BRANCH   1   7
HETATM    7  O   UNL     1      61.542   8.348   2.543  1.00  0.00    -0.255 OA
BRANCH   7   8
HETATM    8  C   UNL     1      61.535   9.190   1.401  1.00  0.00     0.530 C 
HETATM    9  F   UNL     1      61.487  10.508   1.691  1.00  0.00    -0.144 F 
HETATM   10  F   UNL     1      60.494   8.870   0.604  1.00  0.00    -0.144 F 
HETATM   11  F   UNL     1      62.674   8.967   0.710  1.00  0.00    -0.144 F 
ENDBRANCH   7   8
ENDBRANCH   1   7
BRANCH   2  12
HETATM   12  C   UNL     1      66.218   7.793   5.710  1.00  0.00     0.202 C 
BRANCH  12  13
HETATM   13  O   UNL     1      66.324   8.907   6.591  1.00  0.00    -0.396 OA
HETATM   14  H   UNL     1      66.916   9.570   6.204  1.00  0.00     0.209 HD
ENDBRANCH  12  13
ENDBRANCH   2  12
TORSDOF 4
ENDMDL
MODEL 5
REMARK VINA RESULT:      -4.2      4.524      5.846
REMARK  4 active torsions:
REMARK  status: ('A' for Active; 'I' for Inactive)
REMARK    1  A    between atoms: C_1  and  O_2 
REMARK    2  A    between atoms: O_2  and  C_6 
REMARK    3  A    between atoms: C_7  and  C_13 
REMARK    4  A    between atoms: O_12  and  C_13 
ROOT
HETATM    1  C   UNL     1      65.185   7.802   4.906  1.00  0.00     0.078 A 
HETATM    2  C   UNL     1      62.760   8.575   3.695  1.00  0.00    -0.035 A 
HETATM    3  C   UNL     1      64.551   8.977   5.301  1.00  0.00     0.037 A 
HETATM    4  C   UNL     1      64.639   7.054   3.859  1.00  0.00     0.037 A 
HETATM    5  C   UNL     1      63.338   9.352   4.710  1.00  0.00     0.012 A 
HETATM    6  C   UNL     1      63.435   7.431   3.261  1.00  0.00     0.012 A 
ENDROOT
BRANCH   1   7
HETATM    7  O   UNL     1      66.332   7.290   5.423  1.00  0.00    -0.255 OA
BRANCH   7   8
HETATM    8  C   UNL     1      66.365   6.890   6.784  1.00  0.00     0.530 C 
HETATM    9  F   UNL     1      65.172   6.474   7.262  1.00  0.00    -0.144 F 
HETATM   10  F   UNL     1      66.821   7.905   7.547  1.00  0.00    -0.144 F 
HETATM   11  F   UNL     1      67.231   5.860   6.898  1.00  0.00    -0.144 F 
ENDBRANCH   7   8
ENDBRANCH   1   7
BRANCH   2  12
HETATM   12  C   UNL     1      61.439   8.969   3.092  1.00  0.00     0.202 C 
BRANCH  12  13
HETATM   13  O   UNL     1      61.022  10.235   3.593  1.00  0.00    -0.396 OA
HETATM   14  H   UNL     1      60.976  10.199   4.561  1.00  0.00     0.209 HD
ENDBRANCH  12  13
ENDBRANCH   2  12
TORSDOF 4
ENDMDL
MODEL 6
REMARK VINA RESULT:      -4.1      1.278      2.353
REMARK  4 active torsions:
REMARK  status: ('A' for Active; 'I' for Inactive)
REMARK    1  A    between atoms: C_1  and  O_2 
REMARK    2  A    between atoms: O_2  and  C_6 
REMARK    3  A    between atoms: C_7  and  C_13 
REMARK    4  A    between atoms: O_12  and  C_13 
ROOT
HETATM    1  C   UNL     1      62.095   8.672   2.265  1.00  0.00     0.078 A 
HETATM    2  C   UNL     1      63.925   8.245   4.365  1.00  0.00    -0.035 A 
HETATM    3  C   UNL     1      62.155   9.566   3.330  1.00  0.00     0.037 A 
HETATM    4  C   UNL     1      62.902   7.530   2.288  1.00  0.00     0.037 A 
HETATM    5  C   UNL     1      63.077   9.362   4.365  1.00  0.00     0.012 A 
HETATM    6  C   UNL     1      63.813   7.319   3.324  1.00  0.00     0.012 A 
ENDROOT
BRANCH   1   7
HETATM    7  O   UNL     1      61.292   8.769   1.173  1.00  0.00    -0.255 OA
BRANCH   7   8
HETATM    8  C   UNL     1      60.109   7.989   1.107  1.00  0.00     0.530 C 
HETATM    9  F   UNL     1      59.626   7.620   2.313  1.00  0.00    -0.144 F 
HETATM   10  F   UNL     1      60.329   6.887   0.360  1.00  0.00    -0.144 F 
HETATM   11  F   UNL     1      59.155   8.725   0.495  1.00  0.00    -0.144 F 
ENDBRANCH   7   8
ENDBRANCH   1   7
BRANCH   2  12
HETATM   12  C   UNL     1      64.935   8.054   5.464  1.00  0.00     0.202 C 
BRANCH  12  13
HETATM   13  O   UNL     1      65.378   9.316   5.954  1.00  0.00    -0.396 OA
HETATM   14  H   UNL     1      66.253   9.515   5.588  1.00  0.00     0.209 HD
ENDBRANCH  12  13
ENDBRANCH   2  12
TORSDOF 4
ENDMDL
MODEL 7
REMARK VINA RESULT:      -4.0      3.263      5.166
REMARK  4 active torsions:
REMARK  status: ('A' for Active; 'I' for Inactive)
REMARK    1  A    between atoms: C_1  and  O_2 
REMARK    2  A    between atoms: O_2  and  C_6 
REMARK    3  A    between atoms: C_7  and  C_13 
REMARK    4  A    between atoms: O_12  and  C_13 
ROOT
HETATM    1  C   UNL     1      63.005   8.218   2.996  1.00  0.00     0.078 A 
HETATM    2  C   UNL     1      60.763   8.104   1.291  1.00  0.00    -0.035 A 
HETATM    3  C   UNL     1      62.485   9.388   2.447  1.00  0.00     0.037 A 
HETATM    4  C   UNL     1      62.443   6.990   2.636  1.00  0.00     0.037 A 
HETATM    5  C   UNL     1      61.362   9.331   1.613  1.00  0.00     0.012 A 
HETATM    6  C   UNL     1      61.329   6.930   1.795  1.00  0.00     0.012 A 
ENDROOT
BRANCH   1   7
HETATM    7  O   UNL     1      64.052   8.125   3.857  1.00  0.00    -0.255 OA
BRANCH   7   8
HETATM    8  C   UNL     1      63.902   8.593   5.188  1.00  0.00     0.530 C 
HETATM    9  F   UNL     1      64.065   9.926   5.324  1.00  0.00    -0.144 F 
HETATM   10  F   UNL     1      64.771   7.953   5.998  1.00  0.00    -0.144 F 
HETATM   11  F   UNL     1      62.650   8.294   5.599  1.00  0.00    -0.144 F 
ENDBRANCH   7   8
ENDBRANCH   1   7
BRANCH   2  12
HETATM   12  C   UNL     1      59.535   8.059   0.422  1.00  0.00     0.202 C 
BRANCH  12  13
HETATM   13  O   UNL     1      58.369   8.309   1.199  1.00  0.00    -0.396 OA
HETATM   14  H   UNL     1      58.012   9.182   0.974  1.00  0.00     0.209 HD
ENDBRANCH  12  13
ENDBRANCH   2  12
TORSDOF 4
ENDMDL
MODEL 8
REMARK VINA RESULT:      -3.8     12.767     13.625
REMARK  4 active torsions:
REMARK  status: ('A' for Active; 'I' for Inactive)
REMARK    1  A    between atoms: C_1  and  O_2 
REMARK    2  A    between atoms: O_2  and  C_6 
REMARK    3  A    between atoms: C_7  and  C_13 
REMARK    4  A    between atoms: O_12  and  C_13 
ROOT
HETATM    1  C   UNL     1      58.923   1.735  13.092  1.00  0.00     0.078 A 
HETATM    2  C   UNL     1      56.241   2.512  12.704  1.00  0.00    -0.035 A 
HETATM    3  C   UNL     1      57.977   1.497  14.086  1.00  0.00     0.037 A 
HETATM    4  C   UNL     1      58.538   2.422  11.937  1.00  0.00     0.037 A 
HETATM    5  C   UNL     1      56.641   1.868  13.885  1.00  0.00     0.012 A 
HETATM    6  C   UNL     1      57.210   2.803  11.740  1.00  0.00     0.012 A 
ENDROOT
BRANCH   1   7
HETATM    7  O   UNL     1      60.236   1.385  13.126  1.00  0.00    -0.255 OA
BRANCH   7   8
HETATM    8  C   UNL     1      60.621   0.085  12.706  1.00  0.00     0.530 C 
HETATM    9  F   UNL     1      59.979  -0.912  13.351  1.00  0.00    -0.144 F 
HETATM   10  F   UNL     1      61.952  -0.068  12.861  1.00  0.00    -0.144 F 
HETATM   11  F   UNL     1      60.336  -0.031  11.391  1.00  0.00    -0.144 F 
ENDBRANCH   7   8
ENDBRANCH   1   7
BRANCH   2  12
HETATM   12  C   UNL     1      54.797   2.875  12.485  1.00  0.00     0.202 C 
BRANCH  12  13
HETATM   13  O   UNL     1      54.565   4.229  12.857  1.00  0.00    -0.396 OA
HETATM   14  H   UNL     1      53.771   4.280  13.411  1.00  0.00     0.209 HD
ENDBRANCH  12  13
ENDBRANCH   2  12
TORSDOF 4
ENDMDL
MODEL 9
REMARK VINA RESULT:      -3.7      6.472      8.077
REMARK  4 active torsions:
REMARK  status: ('A' for Active; 'I' for Inactive)
REMARK    1  A    between atoms: C_1  and  O_2 
REMARK    2  A    between atoms: O_2  and  C_6 
REMARK    3  A    between atoms: C_7  and  C_13 
REMARK    4  A    between atoms: O_12  and  C_13 
ROOT
HETATM    1  C   UNL     1      56.788   6.442   5.367  1.00  0.00     0.078 A 
HETATM    2  C   UNL     1      56.392   6.554   2.578  1.00  0.00    -0.035 A 
HETATM    3  C   UNL     1      55.568   6.054   4.819  1.00  0.00     0.037 A 
HETATM    4  C   UNL     1      57.782   6.949   4.524  1.00  0.00     0.037 A 
HETATM    5  C   UNL     1      55.379   6.095   3.431  1.00  0.00     0.012 A 
HETATM    6  C   UNL     1      57.591   7.001   3.142  1.00  0.00     0.012 A 
ENDROOT
BRANCH   1   7
HETATM    7  O   UNL     1      57.131   6.407   6.681  1.00  0.00    -0.255 OA
BRANCH   7   8
HETATM    8  C   UNL     1      56.649   7.418   7.553  1.00  0.00     0.530 C 
HETATM    9  F   UNL     1      56.508   8.626   6.967  1.00  0.00    -0.144 F 
HETATM   10  F   UNL     1      57.471   7.532   8.617  1.00  0.00    -0.144 F 
HETATM   11  F   UNL     1      55.433   7.039   8.002  1.00  0.00    -0.144 F 
ENDBRANCH   7   8
ENDBRANCH   1   7
BRANCH   2  12
HETATM   12  C   UNL     1      56.190   6.561   1.087  1.00  0.00     0.202 C 
BRANCH  12  13
HETATM   13  O   UNL     1      54.934   7.145   0.760  1.00  0.00    -0.396 OA
HETATM   14  H   UNL     1      54.241   6.467   0.802  1.00  0.00     0.209 HD
ENDBRANCH  12  13
ENDBRANCH   2  12
TORSDOF 4
ENDMDL
