MODEL 1
REMARK VINA RESULT:      -5.4      0.000      0.000
REMARK  2 active torsions:
REMARK  status: ('A' for Active; 'I' for Inactive)
REMARK    1  A    between atoms: C_5  and  C_9 
REMARK    2  A    between atoms: O_7  and  C_9 
ROOT
HETATM    1  C   UNL     1      62.849   8.677   3.109  1.00  0.00    -0.056 A 
HETATM    2  C   UNL     1      62.172   9.398   2.108  1.00  0.00    -0.056 A 
HETATM    3  C   UNL     1      63.085   9.285   4.356  1.00  0.00     0.016 A 
HETATM    4  C   UNL     1      61.765  10.717   2.372  1.00  0.00     0.008 A 
HETATM    5  C   UNL     1      62.663  10.597   4.621  1.00  0.00    -0.034 A 
HETATM    6  C   UNL     1      62.009  11.310   3.613  1.00  0.00     0.010 A 
HETATM    7  C   UNL     1      63.322   7.266   2.891  1.00  0.00     0.049 C 
HETATM    8  C   UNL     1      61.845   8.824   0.756  1.00  0.00     0.049 C 
ENDROOT
BRANCH   5   9
HETATM    9  C   UNL     1      62.888  11.222   5.971  1.00  0.00     0.202 C 
BRANCH   9  10
HETATM   10  O   UNL     1      64.275  11.409   6.217  1.00  0.00    -0.396 OA
HETATM   11  H   UNL     1      64.592  10.719   6.821  1.00  0.00     0.209 HD
ENDBRANCH   9  10
ENDBRANCH   5   9
TORSDOF 2
ENDMDL
MODEL 2
REMARK VINA RESULT:      -5.1      1.548      2.570
REMARK  2 active torsions:
REMARK  status: ('A' for Active; 'I' for Inactive)
REMARK    1  A    between atoms: C_5  and  C_9 
REMARK    2  A    between atoms: O_7  and  C_9 
ROOT
HETATM    1  C   UNL     1      62.267   9.426   2.433  1.00  0.00    -0.056 A 
HETATM    2  C   UNL     1      62.072  10.739   2.900  1.00  0.00    -0.056 A 
HETATM    3  C   UNL     1      62.686   8.429   3.334  1.00  0.00     0.016 A 
HETATM    4  C   UNL     1      62.319  11.027   4.253  1.00  0.00     0.008 A 
HETATM    5  C   UNL     1      62.916   8.717   4.687  1.00  0.00    -0.034 A 
HETATM    6  C   UNL     1      62.738  10.029   5.136  1.00  0.00     0.010 A 
HETATM    7  C   UNL     1      62.031   9.050   0.995  1.00  0.00     0.049 C 
HETATM    8  C   UNL     1      61.596  11.865   2.023  1.00  0.00     0.049 C 
ENDROOT
BRANCH   5   9
HETATM    9  C   UNL     1      63.327   7.635   5.648  1.00  0.00     0.202 C 
BRANCH   9  10
HETATM   10  O   UNL     1      62.712   7.822   6.915  1.00  0.00    -0.396 OA
HETATM   11  H   UNL     1      61.769   7.605   6.852  1.00  0.00     0.209 HD
ENDBRANCH   9  10
ENDBRANCH   5   9
TORSDOF 2
ENDMDL
MODEL 3
REMARK VINA RESULT:      -4.9      0.895      2.273
REMARK  2 active torsions:
REMARK  status: ('A' for Active; 'I' for Inactive)
REMARK    1  A    between atoms: C_5  and  C_9 
REMARK    2  A    between atoms: O_7  and  C_9 
ROOT
HETATM    1  C   UNL     1      62.364   8.984   2.641  1.00  0.00    -0.056 A 
HETATM    2  C   UNL     1      63.110   7.824   2.918  1.00  0.00    -0.056 A 
HETATM    3  C   UNL     1      62.329  10.025   3.588  1.00  0.00     0.016 A 
HETATM    4  C   UNL     1      63.788   7.724   4.145  1.00  0.00     0.008 A 
HETATM    5  C   UNL     1      63.020   9.928   4.805  1.00  0.00    -0.034 A 
HETATM    6  C   UNL     1      63.741   8.763   5.078  1.00  0.00     0.010 A 
HETATM    7  C   UNL     1      61.605   9.153   1.352  1.00  0.00     0.049 C 
HETATM    8  C   UNL     1      63.234   6.673   1.957  1.00  0.00     0.049 C 
ENDROOT
BRANCH   5   9
HETATM    9  C   UNL     1      63.005  11.063   5.792  1.00  0.00     0.202 C 
BRANCH   9  10
HETATM   10  O   UNL     1      64.325  11.395   6.201  1.00  0.00    -0.396 OA
HETATM   11  H   UNL     1      64.694  10.667   6.725  1.00  0.00     0.209 HD
ENDBRANCH   9  10
ENDBRANCH   5   9
TORSDOF 2
ENDMDL
MODEL 4
REMARK VINA RESULT:      -4.6      1.569      2.472
REMARK  2 active torsions:
REMARK  status: ('A' for Active; 'I' for Inactive)
REMARK    1  A    between atoms: C_5  and  C_9 
REMARK    2  A    between atoms: O_7  and  C_9 
ROOT
HETATM    1  C   UNL     1      64.857   7.774   4.537  1.00  0.00    -0.056 A 
HETATM    2  C   UNL     1      63.985   7.408   3.495  1.00  0.00    -0.056 A 
HETATM    3  C   UNL     1      64.600   8.946   5.272  1.00  0.00     0.016 A 
HETATM    4  C   UNL     1      62.887   8.234   3.201  1.00  0.00     0.008 A 
HETATM    5  C   UNL     1      63.494   9.760   4.985  1.00  0.00    -0.034 A 
HETATM    6  C   UNL     1      62.645   9.397   3.936  1.00  0.00     0.010 A 
HETATM    7  C   UNL     1      66.058   6.942   4.899  1.00  0.00     0.049 C 
HETATM    8  C   UNL     1      64.158   6.158   2.675  1.00  0.00     0.049 C 
ENDROOT
BRANCH   5   9
HETATM    9  C   UNL     1      63.208  10.990   5.802  1.00  0.00     0.202 C 
BRANCH   9  10
HETATM   10  O   UNL     1      64.391  11.468   6.428  1.00  0.00    -0.396 OA
HETATM   11  H   UNL     1      64.319  11.348   7.388  1.00  0.00     0.209 HD
ENDBRANCH   9  10
ENDBRANCH   5   9
TORSDOF 2
ENDMDL
MODEL 5
REMARK VINA RESULT:      -4.4      1.536      2.940
REMARK  2 active torsions:
REMARK  status: ('A' for Active; 'I' for Inactive)
REMARK    1  A    between atoms: C_5  and  C_9 
REMARK    2  A    between atoms: O_7  and  C_9 
ROOT
HETATM    1  C   UNL     1      62.599   9.643   3.607  1.00  0.00    -0.056 A 
HETATM    2  C   UNL     1      62.441   8.760   2.522  1.00  0.00    -0.056 A 
HETATM    3  C   UNL     1      63.459   9.290   4.663  1.00  0.00     0.016 A 
HETATM    4  C   UNL     1      63.132   7.537   2.530  1.00  0.00     0.008 A 
HETATM    5  C   UNL     1      64.160   8.075   4.660  1.00  0.00    -0.034 A 
HETATM    6  C   UNL     1      63.980   7.198   3.587  1.00  0.00     0.010 A 
HETATM    7  C   UNL     1      61.881  10.964   3.668  1.00  0.00     0.049 C 
HETATM    8  C   UNL     1      61.569   9.062   1.333  1.00  0.00     0.049 C 
ENDROOT
BRANCH   5   9
HETATM    9  C   UNL     1      65.105   7.726   5.777  1.00  0.00     0.202 C 
BRANCH   9  10
HETATM   10  O   UNL     1      65.841   8.868   6.192  1.00  0.00    -0.396 OA
HETATM   11  H   UNL     1      66.658   8.584   6.632  1.00  0.00     0.209 HD
ENDBRANCH   9  10
ENDBRANCH   5   9
TORSDOF 2
ENDMDL
MODEL 6
REMARK VINA RESULT:      -4.4      2.531      4.003
REMARK  2 active torsions:
REMARK  status: ('A' for Active; 'I' for Inactive)
REMARK    1  A    between atoms: C_5  and  C_9 
REMARK    2  A    between atoms: O_7  and  C_9 
ROOT
HETATM    1  C   UNL     1      62.945   9.112   4.065  1.00  0.00    -0.056 A 
HETATM    2  C   UNL     1      62.525  10.447   4.209  1.00  0.00    -0.056 A 
HETATM    3  C   UNL     1      62.784   8.469   2.824  1.00  0.00     0.016 A 
HETATM    4  C   UNL     1      61.935  11.101   3.114  1.00  0.00     0.008 A 
HETATM    5  C   UNL     1      62.209   9.130   1.728  1.00  0.00    -0.034 A 
HETATM    6  C   UNL     1      61.777  10.449   1.889  1.00  0.00     0.010 A 
HETATM    7  C   UNL     1      63.575   8.350   5.199  1.00  0.00     0.049 C 
HETATM    8  C   UNL     1      62.684  11.229   5.485  1.00  0.00     0.049 C 
ENDROOT
BRANCH   5   9
HETATM    9  C   UNL     1      62.076   8.443   0.396  1.00  0.00     0.202 C 
BRANCH   9  10
HETATM   10  O   UNL     1      60.791   7.852   0.257  1.00  0.00    -0.396 OA
HETATM   11  H   UNL     1      60.887   6.894   0.139  1.00  0.00     0.209 HD
ENDBRANCH   9  10
ENDBRANCH   5   9
TORSDOF 2
ENDMDL
MODEL 7
REMARK VINA RESULT:      -4.3      1.996      3.577
REMARK  2 active torsions:
REMARK  status: ('A' for Active; 'I' for Inactive)
REMARK    1  A    between atoms: C_5  and  C_9 
REMARK    2  A    between atoms: O_7  and  C_9 
ROOT
HETATM    1  C   UNL     1      62.396  10.005   3.590  1.00  0.00    -0.056 A 
HETATM    2  C   UNL     1      62.021  10.442   2.306  1.00  0.00    -0.056 A 
HETATM    3  C   UNL     1      62.747   8.656   3.783  1.00  0.00     0.016 A 
HETATM    4  C   UNL     1      61.987   9.515   1.251  1.00  0.00     0.008 A 
HETATM    5  C   UNL     1      62.727   7.737   2.724  1.00  0.00    -0.034 A 
HETATM    6  C   UNL     1      62.334   8.178   1.458  1.00  0.00     0.010 A 
HETATM    7  C   UNL     1      62.444  10.942   4.767  1.00  0.00     0.049 C 
HETATM    8  C   UNL     1      61.660  11.869   1.993  1.00  0.00     0.049 C 
ENDROOT
BRANCH   5   9
HETATM    9  C   UNL     1      63.140   6.306   2.936  1.00  0.00     0.202 C 
BRANCH   9  10
HETATM   10  O   UNL     1      64.253   6.225   3.816  1.00  0.00    -0.396 OA
HETATM   11  H   UNL     1      64.549   7.120   4.046  1.00  0.00     0.209 HD
ENDBRANCH   9  10
ENDBRANCH   5   9
TORSDOF 2
ENDMDL
MODEL 8
REMARK VINA RESULT:      -4.2      1.750      3.241
REMARK  2 active torsions:
REMARK  status: ('A' for Active; 'I' for Inactive)
REMARK    1  A    between atoms: C_5  and  C_9 
REMARK    2  A    between atoms: O_7  and  C_9 
ROOT
HETATM    1  C   UNL     1      63.711   7.427   3.301  1.00  0.00    -0.056 A 
HETATM    2  C   UNL     1      64.905   6.881   3.807  1.00  0.00    -0.056 A 
HETATM    3  C   UNL     1      63.200   8.610   3.867  1.00  0.00     0.016 A 
HETATM    4  C   UNL     1      65.548   7.519   4.880  1.00  0.00     0.008 A 
HETATM    5  C   UNL     1      63.854   9.253   4.928  1.00  0.00    -0.034 A 
HETATM    6  C   UNL     1      65.028   8.690   5.436  1.00  0.00     0.010 A 
HETATM    7  C   UNL     1      62.965   6.789   2.160  1.00  0.00     0.049 C 
HETATM    8  C   UNL     1      65.546   5.639   3.248  1.00  0.00     0.049 C 
ENDROOT
BRANCH   5   9
HETATM    9  C   UNL     1      63.318  10.537   5.500  1.00  0.00     0.202 C 
BRANCH   9  10
HETATM   10  O   UNL     1      64.326  11.228   6.224  1.00  0.00    -0.396 OA
HETATM   11  H   UNL     1      63.979  12.082   6.527  1.00  0.00     0.209 HD
ENDBRANCH   9  10
ENDBRANCH   5   9
TORSDOF 2
ENDMDL
MODEL 9
REMARK VINA RESULT:      -4.1      1.997      2.314
REMARK  2 active torsions:
REMARK  status: ('A' for Active; 'I' for Inactive)
REMARK    1  A    between atoms: C_5  and  C_9 
REMARK    2  A    between atoms: O_7  and  C_9 
ROOT
HETATM    1  C   UNL     1      60.599   7.871   2.705  1.00  0.00    -0.056 A 
HETATM    2  C   UNL     1      60.857   8.196   1.360  1.00  0.00    -0.056 A 
HETATM    3  C   UNL     1      61.117   8.691   3.724  1.00  0.00     0.016 A 
HETATM    4  C   UNL     1      61.644   9.322   1.068  1.00  0.00     0.008 A 
HETATM    5  C   UNL     1      61.889   9.824   3.428  1.00  0.00    -0.034 A 
HETATM    6  C   UNL     1      62.156  10.126   2.090  1.00  0.00     0.010 A 
HETATM    7  C   UNL     1      59.773   6.673   3.089  1.00  0.00     0.049 C 
HETATM    8  C   UNL     1      60.321   7.400   0.201  1.00  0.00     0.049 C 
ENDROOT
BRANCH   5   9
HETATM    9  C   UNL     1      62.406  10.714   4.525  1.00  0.00     0.202 C 
BRANCH   9  10
HETATM   10  O   UNL     1      62.088  12.074   4.265  1.00  0.00    -0.396 OA
HETATM   11  H   UNL     1      62.716  12.436   3.621  1.00  0.00     0.209 HD
ENDBRANCH   9  10
ENDBRANCH   5   9
TORSDOF 2
ENDMDL
