MODEL 1
REMARK VINA RESULT:      -5.3      0.000      0.000
REMARK  2 active torsions:
REMARK  status: ('A' for Active; 'I' for Inactive)
REMARK    1  A    between atoms: C_1  and  C_3 
REMARK    2  A    between atoms: C_2  and  N_7 
ROOT
HETATM    1  C   UNL     1      62.446   9.956   3.544  1.00  0.00     0.067 A 
HETATM    2  C   UNL     1      61.909  10.384   2.313  1.00  0.00     0.043 A 
HETATM    3  C   UNL     1      62.926   8.642   3.680  1.00  0.00     0.021 A 
HETATM    4  C   UNL     1      61.913   9.488   1.232  1.00  0.00     0.037 A 
HETATM    5  C   UNL     1      62.887   7.756   2.602  1.00  0.00     0.008 A 
HETATM    6  C   UNL     1      62.376   8.171   1.371  1.00  0.00    -0.060 A 
HETATM    7  C   UNL     1      62.319   7.234   0.200  1.00  0.00     0.048 C 
ENDROOT
BRANCH   1   8
HETATM    8  C   UNL     1      62.452  10.879   4.714  1.00  0.00     0.211 C 
HETATM    9  O   UNL     1      61.989  12.004   4.752  1.00  0.00    -0.644 OA
HETATM   10  O   UNL     1      62.997  10.331   5.819  1.00  0.00    -0.644 OA
ENDBRANCH   1   8
BRANCH   2  11
HETATM   11  N   UNL     1      61.573  11.726   2.051  1.00  0.00    -0.398 N 
HETATM   12  H   UNL     1      62.232  12.326   1.633  1.00  0.00     0.156 HD
HETATM   13  H   UNL     1      60.679  12.064   2.285  1.00  0.00     0.156 HD
ENDBRANCH   2  11
TORSDOF 2
ENDMDL
MODEL 2
REMARK VINA RESULT:      -5.0      1.499      2.296
REMARK  2 active torsions:
REMARK  status: ('A' for Active; 'I' for Inactive)
REMARK    1  A    between atoms: C_1  and  C_3 
REMARK    2  A    between atoms: C_2  and  N_7 
ROOT
HETATM    1  C   UNL     1      62.419  10.023   3.623  1.00  0.00     0.067 A 
HETATM    2  C   UNL     1      62.913   8.708   3.739  1.00  0.00     0.043 A 
HETATM    3  C   UNL     1      61.920  10.477   2.391  1.00  0.00     0.021 A 
HETATM    4  C   UNL     1      62.846   7.865   2.619  1.00  0.00     0.037 A 
HETATM    5  C   UNL     1      61.896   9.633   1.279  1.00  0.00     0.008 A 
HETATM    6  C   UNL     1      62.364   8.322   1.383  1.00  0.00    -0.060 A 
HETATM    7  C   UNL     1      62.353   7.399   0.200  1.00  0.00     0.048 C 
ENDROOT
BRANCH   1   8
HETATM    8  C   UNL     1      62.479  10.947   4.791  1.00  0.00     0.211 C 
HETATM    9  O   UNL     1      63.040  10.738   5.852  1.00  0.00    -0.644 OA
HETATM   10  O   UNL     1      61.875  12.131   4.563  1.00  0.00    -0.644 OA
ENDBRANCH   1   8
BRANCH   2  11
HETATM   11  N   UNL     1      63.264   8.130   4.975  1.00  0.00    -0.398 N 
HETATM   12  H   UNL     1      63.989   7.465   5.019  1.00  0.00     0.156 HD
HETATM   13  H   UNL     1      62.784   8.391   5.793  1.00  0.00     0.156 HD
ENDBRANCH   2  11
TORSDOF 2
ENDMDL
MODEL 3
REMARK VINA RESULT:      -4.9      1.730      2.562
REMARK  2 active torsions:
REMARK  status: ('A' for Active; 'I' for Inactive)
REMARK    1  A    between atoms: C_1  and  C_3 
REMARK    2  A    between atoms: C_2  and  N_7 
ROOT
HETATM    1  C   UNL     1      62.346   9.951   3.042  1.00  0.00     0.067 A 
HETATM    2  C   UNL     1      63.015   9.233   4.055  1.00  0.00     0.043 A 
HETATM    3  C   UNL     1      62.106   9.346   1.797  1.00  0.00     0.021 A 
HETATM    4  C   UNL     1      63.382   7.902   3.802  1.00  0.00     0.037 A 
HETATM    5  C   UNL     1      62.513   8.032   1.555  1.00  0.00     0.008 A 
HETATM    6  C   UNL     1      63.158   7.301   2.554  1.00  0.00    -0.060 A 
HETATM    7  C   UNL     1      63.609   5.891   2.314  1.00  0.00     0.048 C 
ENDROOT
BRANCH   1   8
HETATM    8  C   UNL     1      61.947  11.367   3.273  1.00  0.00     0.211 C 
HETATM    9  O   UNL     1      61.777  11.905   4.353  1.00  0.00    -0.644 OA
HETATM   10  O   UNL     1      61.826  12.078   2.134  1.00  0.00    -0.644 OA
ENDBRANCH   1   8
BRANCH   2  11
HETATM   11  N   UNL     1      63.134   9.707   5.375  1.00  0.00    -0.398 N 
HETATM   12  H   UNL     1      62.558  10.441   5.689  1.00  0.00     0.156 HD
HETATM   13  H   UNL     1      63.794   9.305   5.985  1.00  0.00     0.156 HD
ENDBRANCH   2  11
TORSDOF 2
ENDMDL
MODEL 4
REMARK VINA RESULT:      -4.9      2.498      3.090
REMARK  2 active torsions:
REMARK  status: ('A' for Active; 'I' for Inactive)
REMARK    1  A    between atoms: C_1  and  C_3 
REMARK    2  A    between atoms: C_2  and  N_7 
ROOT
HETATM    1  C   UNL     1      63.839   8.393   4.846  1.00  0.00     0.067 A 
HETATM    2  C   UNL     1      63.076   9.577   4.781  1.00  0.00     0.043 A 
HETATM    3  C   UNL     1      63.824   7.490   3.770  1.00  0.00     0.021 A 
HETATM    4  C   UNL     1      62.354   9.845   3.608  1.00  0.00     0.037 A 
HETATM    5  C   UNL     1      63.069   7.759   2.627  1.00  0.00     0.008 A 
HETATM    6  C   UNL     1      62.324   8.937   2.539  1.00  0.00    -0.060 A 
HETATM    7  C   UNL     1      61.501   9.244   1.323  1.00  0.00     0.048 C 
ENDROOT
BRANCH   1   8
HETATM    8  C   UNL     1      64.613   8.074   6.078  1.00  0.00     0.211 C 
HETATM    9  O   UNL     1      64.318   7.252   6.928  1.00  0.00    -0.644 OA
HETATM   10  O   UNL     1      65.767   8.765   6.174  1.00  0.00    -0.644 OA
ENDBRANCH   1   8
BRANCH   2  11
HETATM   11  N   UNL     1      63.178  10.605   5.738  1.00  0.00    -0.398 N 
HETATM   12  H   UNL     1      63.528  10.408   6.637  1.00  0.00     0.156 HD
HETATM   13  H   UNL     1      62.899  11.520   5.508  1.00  0.00     0.156 HD
ENDBRANCH   2  11
TORSDOF 2
ENDMDL
MODEL 5
REMARK VINA RESULT:      -4.9      2.577      3.538
REMARK  2 active torsions:
REMARK  status: ('A' for Active; 'I' for Inactive)
REMARK    1  A    between atoms: C_1  and  C_3 
REMARK    2  A    between atoms: C_2  and  N_7 
ROOT
HETATM    1  C   UNL     1      62.905   8.810   4.775  1.00  0.00     0.067 A 
HETATM    2  C   UNL     1      62.672   8.476   3.425  1.00  0.00     0.043 A 
HETATM    3  C   UNL     1      62.727  10.134   5.209  1.00  0.00     0.021 A 
HETATM    4  C   UNL     1      62.217   9.479   2.555  1.00  0.00     0.037 A 
HETATM    5  C   UNL     1      62.309  11.124   4.318  1.00  0.00     0.008 A 
HETATM    6  C   UNL     1      62.055  10.805   2.983  1.00  0.00    -0.060 A 
HETATM    7  C   UNL     1      61.610  11.854   2.006  1.00  0.00     0.048 C 
ENDROOT
BRANCH   1   8
HETATM    8  C   UNL     1      63.394   7.771   5.725  1.00  0.00     0.211 C 
HETATM    9  O   UNL     1      64.334   7.016   5.552  1.00  0.00    -0.644 OA
HETATM   10  O   UNL     1      62.713   7.754   6.889  1.00  0.00    -0.644 OA
ENDBRANCH   1   8
BRANCH   2  11
HETATM   11  N   UNL     1      62.659   7.147   2.958  1.00  0.00    -0.398 N 
HETATM   12  H   UNL     1      63.276   6.484   3.343  1.00  0.00     0.156 HD
HETATM   13  H   UNL     1      62.033   6.882   2.247  1.00  0.00     0.156 HD
ENDBRANCH   2  11
TORSDOF 2
ENDMDL
MODEL 6
REMARK VINA RESULT:      -4.6      2.311      3.239
REMARK  2 active torsions:
REMARK  status: ('A' for Active; 'I' for Inactive)
REMARK    1  A    between atoms: C_1  and  C_3 
REMARK    2  A    between atoms: C_2  and  N_7 
ROOT
HETATM    1  C   UNL     1      62.063   9.944   3.841  1.00  0.00     0.067 A 
HETATM    2  C   UNL     1      62.859   9.721   4.984  1.00  0.00     0.043 A 
HETATM    3  C   UNL     1      61.361   8.876   3.258  1.00  0.00     0.021 A 
HETATM    4  C   UNL     1      62.887   8.433   5.540  1.00  0.00     0.037 A 
HETATM    5  C   UNL     1      61.433   7.594   3.806  1.00  0.00     0.008 A 
HETATM    6  C   UNL     1      62.200   7.361   4.949  1.00  0.00    -0.060 A 
HETATM    7  C   UNL     1      62.296   5.991   5.553  1.00  0.00     0.048 C 
ENDROOT
BRANCH   1   8
HETATM    8  C   UNL     1      62.014  11.298   3.221  1.00  0.00     0.211 C 
HETATM    9  O   UNL     1      62.045  11.551   2.030  1.00  0.00    -0.644 OA
HETATM   10  O   UNL     1      61.873  12.290   4.123  1.00  0.00    -0.644 OA
ENDBRANCH   1   8
BRANCH   2  11
HETATM   11  N   UNL     1      63.447  10.767   5.721  1.00  0.00    -0.398 N 
HETATM   12  H   UNL     1      63.580  11.649   5.304  1.00  0.00     0.156 HD
HETATM   13  H   UNL     1      63.724  10.617   6.653  1.00  0.00     0.156 HD
ENDBRANCH   2  11
TORSDOF 2
ENDMDL
MODEL 7
REMARK VINA RESULT:      -4.4      2.798      3.507
REMARK  2 active torsions:
REMARK  status: ('A' for Active; 'I' for Inactive)
REMARK    1  A    between atoms: C_1  and  C_3 
REMARK    2  A    between atoms: C_2  and  N_7 
ROOT
HETATM    1  C   UNL     1      63.818   8.351   4.629  1.00  0.00     0.067 A 
HETATM    2  C   UNL     1      63.874   7.409   3.581  1.00  0.00     0.043 A 
HETATM    3  C   UNL     1      63.010   9.493   4.501  1.00  0.00     0.021 A 
HETATM    4  C   UNL     1      63.073   7.620   2.448  1.00  0.00     0.037 A 
HETATM    5  C   UNL     1      62.250   9.701   3.349  1.00  0.00     0.008 A 
HETATM    6  C   UNL     1      62.279   8.768   2.311  1.00  0.00    -0.060 A 
HETATM    7  C   UNL     1      61.475   8.973   1.061  1.00  0.00     0.048 C 
ENDROOT
BRANCH   1   8
HETATM    8  C   UNL     1      64.658   8.162   5.845  1.00  0.00     0.211 C 
HETATM    9  O   UNL     1      64.553   7.270   6.668  1.00  0.00    -0.644 OA
HETATM   10  O   UNL     1      65.643   9.076   5.956  1.00  0.00    -0.644 OA
ENDBRANCH   1   8
BRANCH   2  11
HETATM   11  N   UNL     1      64.518   6.163   3.707  1.00  0.00    -0.398 N 
HETATM   12  H   UNL     1      63.993   5.355   3.906  1.00  0.00     0.156 HD
HETATM   13  H   UNL     1      65.494   6.101   3.595  1.00  0.00     0.156 HD
ENDBRANCH   2  11
TORSDOF 2
ENDMDL
MODEL 8
REMARK VINA RESULT:      -4.3      2.507      3.528
REMARK  2 active torsions:
REMARK  status: ('A' for Active; 'I' for Inactive)
REMARK    1  A    between atoms: C_1  and  C_3 
REMARK    2  A    between atoms: C_2  and  N_7 
ROOT
HETATM    1  C   UNL     1      62.647   8.568   3.749  1.00  0.00     0.067 A 
HETATM    2  C   UNL     1      62.452   9.760   4.477  1.00  0.00     0.043 A 
HETATM    3  C   UNL     1      62.415   8.548   2.363  1.00  0.00     0.021 A 
HETATM    4  C   UNL     1      62.074  10.917   3.778  1.00  0.00     0.037 A 
HETATM    5  C   UNL     1      62.004   9.703   1.694  1.00  0.00     0.008 A 
HETATM    6  C   UNL     1      61.826  10.896   2.398  1.00  0.00    -0.060 A 
HETATM    7  C   UNL     1      61.380  12.147   1.701  1.00  0.00     0.048 C 
ENDROOT
BRANCH   1   8
HETATM    8  C   UNL     1      63.043   7.319   4.458  1.00  0.00     0.211 C 
HETATM    9  O   UNL     1      64.084   6.704   4.316  1.00  0.00    -0.644 OA
HETATM   10  O   UNL     1      62.132   6.914   5.367  1.00  0.00    -0.644 OA
ENDBRANCH   1   8
BRANCH   2  11
HETATM   11  N   UNL     1      62.829   9.901   5.826  1.00  0.00    -0.398 N 
HETATM   12  H   UNL     1      62.944   9.104   6.392  1.00  0.00     0.156 HD
HETATM   13  H   UNL     1      62.978  10.798   6.204  1.00  0.00     0.156 HD
ENDBRANCH   2  11
TORSDOF 2
ENDMDL
MODEL 9
REMARK VINA RESULT:      -4.1      2.805      3.828
REMARK  2 active torsions:
REMARK  status: ('A' for Active; 'I' for Inactive)
REMARK    1  A    between atoms: C_1  and  C_3 
REMARK    2  A    between atoms: C_2  and  N_7 
ROOT
HETATM    1  C   UNL     1      63.166   8.513   3.898  1.00  0.00     0.067 A 
HETATM    2  C   UNL     1      64.009   9.058   4.889  1.00  0.00     0.043 A 
HETATM    3  C   UNL     1      63.552   7.349   3.213  1.00  0.00     0.021 A 
HETATM    4  C   UNL     1      65.200   8.384   5.200  1.00  0.00     0.037 A 
HETATM    5  C   UNL     1      64.759   6.715   3.513  1.00  0.00     0.008 A 
HETATM    6  C   UNL     1      65.595   7.230   4.506  1.00  0.00    -0.060 A 
HETATM    7  C   UNL     1      66.900   6.570   4.841  1.00  0.00     0.048 C 
ENDROOT
BRANCH   1   8
HETATM    8  C   UNL     1      61.896   9.205   3.538  1.00  0.00     0.211 C 
HETATM    9  O   UNL     1      60.777   8.727   3.569  1.00  0.00    -0.644 OA
HETATM   10  O   UNL     1      62.074  10.499   3.201  1.00  0.00    -0.644 OA
ENDBRANCH   1   8
BRANCH   2  11
HETATM   11  N   UNL     1      63.612  10.114   5.733  1.00  0.00    -0.398 N 
HETATM   12  H   UNL     1      63.428   9.941   6.684  1.00  0.00     0.156 HD
HETATM   13  H   UNL     1      63.520  11.024   5.371  1.00  0.00     0.156 HD
ENDBRANCH   2  11
TORSDOF 2
ENDMDL
