MODEL 1
REMARK VINA RESULT:      -5.1      0.000      0.000
REMARK  3 active torsions:
REMARK  status: ('A' for Active; 'I' for Inactive)
REMARK    1  A    between atoms: C_1  and  O_4 
REMARK       I    between atoms: C_2  and  N_3 
REMARK    2  A    between atoms: N_3  and  C_9 
REMARK    3  A    between atoms: O_4  and  C_10 
ROOT
HETATM    1  C   UNL     1      64.113   8.234   5.256  1.00  0.00     0.034 A 
HETATM    2  C   UNL     1      65.852   6.613   6.778  1.00  0.00     0.078 A 
HETATM    3  C   UNL     1      65.495   8.462   5.236  1.00  0.00     0.032 A 
HETATM    4  C   UNL     1      63.631   7.156   5.998  1.00  0.00     0.032 A 
HETATM    5  C   UNL     1      66.358   7.653   5.990  1.00  0.00     0.039 A 
HETATM    6  C   UNL     1      64.494   6.338   6.735  1.00  0.00     0.039 A 
ENDROOT
BRANCH   1   7
HETATM    7  N   UNL     1      63.280   9.105   4.519  1.00  0.00    -0.328 N 
HETATM    8  C   UNL     1      62.825  10.351   4.922  1.00  0.00     0.218 C 
HETATM    9  O   UNL     1      63.059  10.914   5.984  1.00  0.00    -0.274 OA
HETATM   10  C   UNL     1      61.970  11.023   3.881  1.00  0.00     0.117 C 
HETATM   11  H   UNL     1      62.992   8.795   3.630  1.00  0.00     0.169 HD
ENDBRANCH   1   7
BRANCH   2  12
HETATM   12  O   UNL     1      66.784   5.914   7.484  1.00  0.00    -0.255 OA
BRANCH  12  13
HETATM   13  C   UNL     1      67.024   6.254   8.845  1.00  0.00     0.530 C 
HETATM   14  F   UNL     1      67.311   7.554   9.060  1.00  0.00    -0.144 F 
HETATM   15  F   UNL     1      68.075   5.527   9.290  1.00  0.00    -0.144 F 
HETATM   16  F   UNL     1      65.943   5.921   9.586  1.00  0.00    -0.144 F 
ENDBRANCH  12  13
ENDBRANCH   2  12
TORSDOF 3
ENDMDL
MODEL 2
REMARK VINA RESULT:      -4.9      5.006      6.760
REMARK  3 active torsions:
REMARK  status: ('A' for Active; 'I' for Inactive)
REMARK    1  A    between atoms: C_1  and  O_4 
REMARK       I    between atoms: C_2  and  N_3 
REMARK    2  A    between atoms: N_3  and  C_9 
REMARK    3  A    between atoms: O_4  and  C_10 
ROOT
HETATM    1  C   UNL     1      64.913   7.700   4.857  1.00  0.00     0.034 A 
HETATM    2  C   UNL     1      62.607   8.354   3.366  1.00  0.00     0.078 A 
HETATM    3  C   UNL     1      64.445   6.837   3.858  1.00  0.00     0.032 A 
HETATM    4  C   UNL     1      64.245   8.908   5.053  1.00  0.00     0.032 A 
HETATM    5  C   UNL     1      63.302   7.166   3.114  1.00  0.00     0.039 A 
HETATM    6  C   UNL     1      63.116   9.245   4.299  1.00  0.00     0.039 A 
ENDROOT
BRANCH   1   7
HETATM    7  N   UNL     1      66.040   7.304   5.611  1.00  0.00    -0.328 N 
HETATM    8  C   UNL     1      66.053   6.939   6.948  1.00  0.00     0.218 C 
HETATM    9  O   UNL     1      65.096   6.900   7.712  1.00  0.00    -0.274 OA
HETATM   10  C   UNL     1      67.424   6.550   7.433  1.00  0.00     0.117 C 
HETATM   11  H   UNL     1      66.904   7.284   5.139  1.00  0.00     0.169 HD
ENDBRANCH   1   7
BRANCH   2  12
HETATM   12  O   UNL     1      61.499   8.552   2.598  1.00  0.00    -0.255 OA
BRANCH  12  13
HETATM   13  C   UNL     1      61.617   9.284   1.383  1.00  0.00     0.530 C 
HETATM   14  F   UNL     1      62.757   9.057   0.697  1.00  0.00    -0.144 F 
HETATM   15  F   UNL     1      61.573  10.604   1.672  1.00  0.00    -0.144 F 
HETATM   16  F   UNL     1      60.566   8.996   0.584  1.00  0.00    -0.144 F 
ENDBRANCH  12  13
ENDBRANCH   2  12
TORSDOF 3
ENDMDL
MODEL 3
REMARK VINA RESULT:      -4.7      4.910      6.774
REMARK  3 active torsions:
REMARK  status: ('A' for Active; 'I' for Inactive)
REMARK    1  A    between atoms: C_1  and  O_4 
REMARK       I    between atoms: C_2  and  N_3 
REMARK    2  A    between atoms: N_3  and  C_9 
REMARK    3  A    between atoms: O_4  and  C_10 
ROOT
HETATM    1  C   UNL     1      63.741   7.657   5.814  1.00  0.00     0.034 A 
HETATM    2  C   UNL     1      62.043   8.389   3.681  1.00  0.00     0.078 A 
HETATM    3  C   UNL     1      62.767   6.766   5.344  1.00  0.00     0.032 A 
HETATM    4  C   UNL     1      63.883   8.883   5.165  1.00  0.00     0.032 A 
HETATM    5  C   UNL     1      61.927   7.130   4.280  1.00  0.00     0.039 A 
HETATM    6  C   UNL     1      63.058   9.239   4.093  1.00  0.00     0.039 A 
ENDROOT
BRANCH   1   7
HETATM    7  N   UNL     1      64.530   7.264   6.917  1.00  0.00    -0.328 N 
HETATM    8  C   UNL     1      65.844   6.824   6.878  1.00  0.00     0.218 C 
HETATM    9  O   UNL     1      66.550   6.693   5.885  1.00  0.00    -0.274 OA
HETATM   10  C   UNL     1      66.393   6.507   8.243  1.00  0.00     0.117 C 
HETATM   11  H   UNL     1      64.104   7.307   7.803  1.00  0.00     0.169 HD
ENDBRANCH   1   7
BRANCH   2  12
HETATM   12  O   UNL     1      61.156   8.637   2.676  1.00  0.00    -0.255 OA
BRANCH  12  13
HETATM   13  C   UNL     1      61.648   8.922   1.371  1.00  0.00     0.530 C 
HETATM   14  F   UNL     1      62.048  10.197   1.185  1.00  0.00    -0.144 F 
HETATM   15  F   UNL     1      60.663   8.671   0.478  1.00  0.00    -0.144 F 
HETATM   16  F   UNL     1      62.682   8.097   1.093  1.00  0.00    -0.144 F 
ENDBRANCH  12  13
ENDBRANCH   2  12
TORSDOF 3
ENDMDL
MODEL 4
REMARK VINA RESULT:      -4.7      4.116      6.198
REMARK  3 active torsions:
REMARK  status: ('A' for Active; 'I' for Inactive)
REMARK    1  A    between atoms: C_1  and  O_4 
REMARK       I    between atoms: C_2  and  N_3 
REMARK    2  A    between atoms: N_3  and  C_9 
REMARK    3  A    between atoms: O_4  and  C_10 
ROOT
HETATM    1  C   UNL     1      64.957   6.661   6.279  1.00  0.00     0.034 A 
HETATM    2  C   UNL     1      63.445   8.813   5.252  1.00  0.00     0.078 A 
HETATM    3  C   UNL     1      65.596   7.761   5.692  1.00  0.00     0.032 A 
HETATM    4  C   UNL     1      63.567   6.686   6.391  1.00  0.00     0.032 A 
HETATM    5  C   UNL     1      64.843   8.831   5.187  1.00  0.00     0.039 A 
HETATM    6  C   UNL     1      62.818   7.762   5.904  1.00  0.00     0.039 A 
ENDROOT
BRANCH   1   7
HETATM    7  N   UNL     1      65.754   5.586   6.730  1.00  0.00    -0.328 N 
HETATM    8  C   UNL     1      66.304   5.438   7.994  1.00  0.00     0.218 C 
HETATM    9  O   UNL     1      66.201   6.212   8.938  1.00  0.00    -0.274 OA
HETATM   10  C   UNL     1      67.084   4.160   8.144  1.00  0.00     0.117 C 
HETATM   11  H   UNL     1      65.939   4.869   6.081  1.00  0.00     0.169 HD
ENDBRANCH   1   7
BRANCH   2  12
HETATM   12  O   UNL     1      62.824   9.895   4.706  1.00  0.00    -0.255 OA
BRANCH  12  13
HETATM   13  C   UNL     1      62.111   9.744   3.483  1.00  0.00     0.530 C 
HETATM   14  F   UNL     1      60.901   9.161   3.605  1.00  0.00    -0.144 F 
HETATM   15  F   UNL     1      62.850   8.976   2.649  1.00  0.00    -0.144 F 
HETATM   16  F   UNL     1      61.953  10.956   2.905  1.00  0.00    -0.144 F 
ENDBRANCH  12  13
ENDBRANCH   2  12
TORSDOF 3
ENDMDL
MODEL 5
REMARK VINA RESULT:      -4.7      5.278      6.984
REMARK  3 active torsions:
REMARK  status: ('A' for Active; 'I' for Inactive)
REMARK    1  A    between atoms: C_1  and  O_4 
REMARK       I    between atoms: C_2  and  N_3 
REMARK    2  A    between atoms: N_3  and  C_9 
REMARK    3  A    between atoms: O_4  and  C_10 
ROOT
HETATM    1  C   UNL     1      63.880   8.318   4.813  1.00  0.00     0.034 A 
HETATM    2  C   UNL     1      62.194   8.888   2.622  1.00  0.00     0.078 A 
HETATM    3  C   UNL     1      63.871   7.482   3.688  1.00  0.00     0.032 A 
HETATM    4  C   UNL     1      63.081   9.460   4.794  1.00  0.00     0.032 A 
HETATM    5  C   UNL     1      63.036   7.771   2.598  1.00  0.00     0.039 A 
HETATM    6  C   UNL     1      62.263   9.757   3.700  1.00  0.00     0.039 A 
ENDROOT
BRANCH   1   7
HETATM    7  N   UNL     1      64.702   7.961   5.904  1.00  0.00    -0.328 N 
HETATM    8  C   UNL     1      66.086   8.018   5.951  1.00  0.00     0.218 C 
HETATM    9  O   UNL     1      66.840   8.383   5.056  1.00  0.00    -0.274 OA
HETATM   10  C   UNL     1      66.644   7.584   7.279  1.00  0.00     0.117 C 
HETATM   11  H   UNL     1      64.246   7.638   6.715  1.00  0.00     0.169 HD
ENDBRANCH   1   7
BRANCH   2  12
HETATM   12  O   UNL     1      61.412   9.049   1.518  1.00  0.00    -0.255 OA
BRANCH  12  13
HETATM   13  C   UNL     1      60.328   8.153   1.298  1.00  0.00     0.530 C 
HETATM   14  F   UNL     1      59.786   7.638   2.421  1.00  0.00    -0.144 F 
HETATM   15  F   UNL     1      60.772   7.118   0.549  1.00  0.00    -0.144 F 
HETATM   16  F   UNL     1      59.359   8.787   0.601  1.00  0.00    -0.144 F 
ENDBRANCH  12  13
ENDBRANCH   2  12
TORSDOF 3
ENDMDL
MODEL 6
REMARK VINA RESULT:      -4.6      2.832      3.429
REMARK  3 active torsions:
REMARK  status: ('A' for Active; 'I' for Inactive)
REMARK    1  A    between atoms: C_1  and  O_4 
REMARK       I    between atoms: C_2  and  N_3 
REMARK    2  A    between atoms: N_3  and  C_9 
REMARK    3  A    between atoms: O_4  and  C_10 
ROOT
HETATM    1  C   UNL     1      62.784   7.986   3.343  1.00  0.00     0.034 A 
HETATM    2  C   UNL     1      65.244   8.182   4.713  1.00  0.00     0.078 A 
HETATM    3  C   UNL     1      63.776   7.013   3.163  1.00  0.00     0.032 A 
HETATM    4  C   UNL     1      63.024   9.014   4.254  1.00  0.00     0.032 A 
HETATM    5  C   UNL     1      64.996   7.110   3.849  1.00  0.00     0.039 A 
HETATM    6  C   UNL     1      64.233   9.100   4.951  1.00  0.00     0.039 A 
ENDROOT
BRANCH   1   7
HETATM    7  N   UNL     1      61.591   7.872   2.595  1.00  0.00    -0.328 N 
HETATM    8  C   UNL     1      61.301   8.510   1.399  1.00  0.00     0.218 C 
HETATM    9  O   UNL     1      62.022   9.286   0.782  1.00  0.00    -0.274 OA
HETATM   10  C   UNL     1      59.944   8.148   0.859  1.00  0.00     0.117 C 
HETATM   11  H   UNL     1      60.895   7.280   2.961  1.00  0.00     0.169 HD
ENDBRANCH   1   7
BRANCH   2  12
HETATM   12  O   UNL     1      66.473   8.180   5.301  1.00  0.00    -0.255 OA
BRANCH  12  13
HETATM   13  C   UNL     1      66.598   7.736   6.648  1.00  0.00     0.530 C 
HETATM   14  F   UNL     1      65.481   7.185   7.166  1.00  0.00    -0.144 F 
HETATM   15  F   UNL     1      66.924   8.797   7.420  1.00  0.00    -0.144 F 
HETATM   16  F   UNL     1      67.603   6.836   6.730  1.00  0.00    -0.144 F 
ENDBRANCH  12  13
ENDBRANCH   2  12
TORSDOF 3
ENDMDL
MODEL 7
REMARK VINA RESULT:      -4.6      1.884      2.138
REMARK  3 active torsions:
REMARK  status: ('A' for Active; 'I' for Inactive)
REMARK    1  A    between atoms: C_1  and  O_4 
REMARK       I    between atoms: C_2  and  N_3 
REMARK    2  A    between atoms: N_3  and  C_9 
REMARK    3  A    between atoms: O_4  and  C_10 
ROOT
HETATM    1  C   UNL     1      63.568   7.646   4.040  1.00  0.00     0.034 A 
HETATM    2  C   UNL     1      64.577   7.063   6.611  1.00  0.00     0.078 A 
HETATM    3  C   UNL     1      64.752   8.244   4.489  1.00  0.00     0.032 A 
HETATM    4  C   UNL     1      62.938   6.719   4.870  1.00  0.00     0.032 A 
HETATM    5  C   UNL     1      65.255   7.949   5.765  1.00  0.00     0.039 A 
HETATM    6  C   UNL     1      63.449   6.412   6.135  1.00  0.00     0.039 A 
ENDROOT
BRANCH   1   7
HETATM    7  N   UNL     1      63.075   8.010   2.767  1.00  0.00    -0.328 N 
HETATM    8  C   UNL     1      62.314   9.129   2.464  1.00  0.00     0.218 C 
HETATM    9  O   UNL     1      61.931   9.994   3.242  1.00  0.00    -0.274 OA
HETATM   10  C   UNL     1      61.977   9.225   1.000  1.00  0.00     0.117 C 
HETATM   11  H   UNL     1      63.295   7.409   2.019  1.00  0.00     0.169 HD
ENDBRANCH   1   7
BRANCH   2  12
HETATM   12  O   UNL     1      65.148   6.876   7.833  1.00  0.00    -0.255 OA
BRANCH  12  13
HETATM   13  C   UNL     1      66.285   6.026   7.946  1.00  0.00     0.530 C 
HETATM   14  F   UNL     1      66.393   5.096   6.975  1.00  0.00    -0.144 F 
HETATM   15  F   UNL     1      66.216   5.373   9.128  1.00  0.00    -0.144 F 
HETATM   16  F   UNL     1      67.407   6.780   7.951  1.00  0.00    -0.144 F 
ENDBRANCH  12  13
ENDBRANCH   2  12
TORSDOF 3
ENDMDL
MODEL 8
REMARK VINA RESULT:      -4.4      2.950      3.549
REMARK  3 active torsions:
REMARK  status: ('A' for Active; 'I' for Inactive)
REMARK    1  A    between atoms: C_1  and  O_4 
REMARK       I    between atoms: C_2  and  N_3 
REMARK    2  A    between atoms: N_3  and  C_9 
REMARK    3  A    between atoms: O_4  and  C_10 
ROOT
HETATM    1  C   UNL     1      62.329   7.890   3.824  1.00  0.00     0.034 A 
HETATM    2  C   UNL     1      64.987   8.228   4.711  1.00  0.00     0.078 A 
HETATM    3  C   UNL     1      62.691   9.021   4.567  1.00  0.00     0.032 A 
HETATM    4  C   UNL     1      63.324   6.973   3.489  1.00  0.00     0.032 A 
HETATM    5  C   UNL     1      64.013   9.189   5.003  1.00  0.00     0.039 A 
HETATM    6  C   UNL     1      64.647   7.150   3.908  1.00  0.00     0.039 A 
ENDROOT
BRANCH   1   7
HETATM    7  N   UNL     1      60.976   7.741   3.448  1.00  0.00    -0.328 N 
HETATM    8  C   UNL     1      59.996   7.049   4.143  1.00  0.00     0.218 C 
HETATM    9  O   UNL     1      60.130   6.442   5.199  1.00  0.00    -0.274 OA
HETATM   10  C   UNL     1      58.652   7.109   3.469  1.00  0.00     0.117 C 
HETATM   11  H   UNL     1      60.700   8.172   2.607  1.00  0.00     0.169 HD
ENDBRANCH   1   7
BRANCH   2  12
HETATM   12  O   UNL     1      66.228   8.489   5.210  1.00  0.00    -0.255 OA
BRANCH  12  13
HETATM   13  C   UNL     1      66.599   7.943   6.471  1.00  0.00     0.530 C 
HETATM   14  F   UNL     1      65.630   7.232   7.085  1.00  0.00    -0.144 F 
HETATM   15  F   UNL     1      66.940   8.960   7.295  1.00  0.00    -0.144 F 
HETATM   16  F   UNL     1      67.684   7.152   6.314  1.00  0.00    -0.144 F 
ENDBRANCH  12  13
ENDBRANCH   2  12
TORSDOF 3
ENDMDL
MODEL 9
REMARK VINA RESULT:      -4.3      3.797      6.015
REMARK  3 active torsions:
REMARK  status: ('A' for Active; 'I' for Inactive)
REMARK    1  A    between atoms: C_1  and  O_4 
REMARK       I    between atoms: C_2  and  N_3 
REMARK    2  A    between atoms: N_3  and  C_9 
REMARK    3  A    between atoms: O_4  and  C_10 
ROOT
HETATM    1  C   UNL     1      66.790   5.636   5.928  1.00  0.00     0.034 A 
HETATM    2  C   UNL     1      65.511   8.081   5.334  1.00  0.00     0.078 A 
HETATM    3  C   UNL     1      66.892   6.722   6.807  1.00  0.00     0.032 A 
HETATM    4  C   UNL     1      65.998   5.779   4.789  1.00  0.00     0.032 A 
HETATM    5  C   UNL     1      66.252   7.934   6.512  1.00  0.00     0.039 A 
HETATM    6  C   UNL     1      65.345   6.982   4.505  1.00  0.00     0.039 A 
ENDROOT
BRANCH   1   7
HETATM    7  N   UNL     1      67.491   4.451   6.243  1.00  0.00    -0.328 N 
HETATM    8  C   UNL     1      67.102   3.476   7.149  1.00  0.00     0.218 C 
HETATM    9  O   UNL     1      66.088   3.470   7.836  1.00  0.00    -0.274 OA
HETATM   10  C   UNL     1      68.075   2.331   7.226  1.00  0.00     0.117 C 
HETATM   11  H   UNL     1      68.344   4.302   5.773  1.00  0.00     0.169 HD
ENDBRANCH   1   7
BRANCH   2  12
HETATM   12  O   UNL     1      64.958   9.312   5.146  1.00  0.00    -0.255 OA
BRANCH  12  13
HETATM   13  C   UNL     1      63.542   9.430   5.058  1.00  0.00     0.530 C 
HETATM   14  F   UNL     1      63.050  10.622   5.455  1.00  0.00    -0.144 F 
HETATM   15  F   UNL     1      62.983   8.479   5.840  1.00  0.00    -0.144 F 
HETATM   16  F   UNL     1      63.153   9.203   3.783  1.00  0.00    -0.144 F 
ENDBRANCH  12  13
ENDBRANCH   2  12
TORSDOF 3
ENDMDL
