MODEL 1
REMARK VINA RESULT:      -5.3      0.000      0.000
REMARK  2 active torsions:
REMARK  status: ('A' for Active; 'I' for Inactive)
REMARK    1  A    between atoms: C_1  and  C_3 
REMARK    2  A    between atoms: C_1  and  O_7 
ROOT
HETATM    1  N   UNL     1      61.945  12.041   4.380  1.00  0.00    -0.191 NA
HETATM    2  C   UNL     1      63.008   8.665   3.859  1.00  0.00     0.060 A 
HETATM    3  C   UNL     1      62.124  10.998   3.899  1.00  0.00     0.100 C 
HETATM    4  C   UNL     1      62.340   9.740   3.249  1.00  0.00     0.060 A 
HETATM    5  C   UNL     1      63.257   7.499   3.112  1.00  0.00     0.019 A 
HETATM    6  C   UNL     1      61.903   9.614   1.918  1.00  0.00     0.024 A 
HETATM    7  C   UNL     1      62.831   7.392   1.788  1.00  0.00     0.001 A 
HETATM    8  C   UNL     1      62.146   8.447   1.192  1.00  0.00     0.002 A 
ENDROOT
BRANCH   2   9
HETATM    9  C   UNL     1      63.519   8.673   5.256  1.00  0.00     0.294 C 
HETATM   10  O   UNL     1      62.832   8.340   6.210  1.00  0.00    -0.259 OA
BRANCH   9  11
HETATM   11  O   UNL     1      64.777   9.160   5.314  1.00  0.00    -0.322 OA
HETATM   12  C   UNL     1      65.776   8.238   5.763  1.00  0.00     0.213 C 
ENDBRANCH   9  11
ENDBRANCH   2   9
TORSDOF 2
ENDMDL
MODEL 2
REMARK VINA RESULT:      -5.1      1.902      2.792
REMARK  2 active torsions:
REMARK  status: ('A' for Active; 'I' for Inactive)
REMARK    1  A    between atoms: C_1  and  C_3 
REMARK    2  A    between atoms: C_1  and  O_7 
ROOT
HETATM    1  N   UNL     1      63.382   6.265   2.644  1.00  0.00    -0.191 NA
HETATM    2  C   UNL     1      62.868   9.476   4.134  1.00  0.00     0.060 A 
HETATM    3  C   UNL     1      63.114   7.386   2.794  1.00  0.00     0.100 C 
HETATM    4  C   UNL     1      62.743   8.763   2.930  1.00  0.00     0.060 A 
HETATM    5  C   UNL     1      62.391  10.798   4.201  1.00  0.00     0.019 A 
HETATM    6  C   UNL     1      62.177   9.397   1.809  1.00  0.00     0.024 A 
HETATM    7  C   UNL     1      61.819  11.411   3.085  1.00  0.00     0.001 A 
HETATM    8  C   UNL     1      61.720  10.713   1.886  1.00  0.00     0.002 A 
ENDROOT
BRANCH   2   9
HETATM    9  C   UNL     1      63.446   8.921   5.388  1.00  0.00     0.294 C 
HETATM   10  O   UNL     1      62.773   8.327   6.215  1.00  0.00    -0.259 OA
BRANCH   9  11
HETATM   11  O   UNL     1      64.754   9.235   5.503  1.00  0.00    -0.322 OA
HETATM   12  C   UNL     1      65.661   8.128   5.452  1.00  0.00     0.213 C 
ENDBRANCH   9  11
ENDBRANCH   2   9
TORSDOF 2
ENDMDL
MODEL 3
REMARK VINA RESULT:      -4.6      2.316      3.297
REMARK  2 active torsions:
REMARK  status: ('A' for Active; 'I' for Inactive)
REMARK    1  A    between atoms: C_1  and  C_3 
REMARK    2  A    between atoms: C_1  and  O_7 
ROOT
HETATM    1  N   UNL     1      64.418   5.847   2.776  1.00  0.00    -0.191 NA
HETATM    2  C   UNL     1      63.869   8.825   4.679  1.00  0.00     0.060 A 
HETATM    3  C   UNL     1      64.019   6.882   3.121  1.00  0.00     0.100 C 
HETATM    4  C   UNL     1      63.473   8.147   3.515  1.00  0.00     0.060 A 
HETATM    5  C   UNL     1      63.212  10.016   5.036  1.00  0.00     0.019 A 
HETATM    6  C   UNL     1      62.455   8.692   2.712  1.00  0.00     0.024 A 
HETATM    7  C   UNL     1      62.194  10.540   4.239  1.00  0.00     0.001 A 
HETATM    8  C   UNL     1      61.820   9.882   3.071  1.00  0.00     0.002 A 
ENDROOT
BRANCH   2   9
HETATM    9  C   UNL     1      64.929   8.354   5.611  1.00  0.00     0.294 C 
HETATM   10  O   UNL     1      66.114   8.592   5.433  1.00  0.00    -0.259 OA
BRANCH   9  11
HETATM   11  O   UNL     1      64.411   7.589   6.595  1.00  0.00    -0.322 OA
HETATM   12  C   UNL     1      65.093   6.354   6.841  1.00  0.00     0.213 C 
ENDBRANCH   9  11
ENDBRANCH   2   9
TORSDOF 2
ENDMDL
MODEL 4
REMARK VINA RESULT:      -4.5      2.415      3.154
REMARK  2 active torsions:
REMARK  status: ('A' for Active; 'I' for Inactive)
REMARK    1  A    between atoms: C_1  and  C_3 
REMARK    2  A    between atoms: C_1  and  O_7 
ROOT
HETATM    1  N   UNL     1      63.097   7.885   6.489  1.00  0.00    -0.191 NA
HETATM    2  C   UNL     1      62.439   8.296   2.997  1.00  0.00     0.060 A 
HETATM    3  C   UNL     1      62.804   8.349   5.465  1.00  0.00     0.100 C 
HETATM    4  C   UNL     1      62.460   8.979   4.224  1.00  0.00     0.060 A 
HETATM    5  C   UNL     1      62.181   9.016   1.816  1.00  0.00     0.019 A 
HETATM    6  C   UNL     1      62.187  10.359   4.251  1.00  0.00     0.024 A 
HETATM    7  C   UNL     1      61.925  10.388   1.854  1.00  0.00     0.001 A 
HETATM    8  C   UNL     1      61.920  11.058   3.073  1.00  0.00     0.002 A 
ENDROOT
BRANCH   2   9
HETATM    9  C   UNL     1      62.710   6.843   2.835  1.00  0.00     0.294 C 
HETATM   10  O   UNL     1      61.909   5.983   3.166  1.00  0.00    -0.259 OA
BRANCH   9  11
HETATM   11  O   UNL     1      63.956   6.628   2.361  1.00  0.00    -0.322 OA
HETATM   12  C   UNL     1      64.916   6.188   3.328  1.00  0.00     0.213 C 
ENDBRANCH   9  11
ENDBRANCH   2   9
TORSDOF 2
ENDMDL
MODEL 5
REMARK VINA RESULT:      -4.5      2.040      3.439
REMARK  2 active torsions:
REMARK  status: ('A' for Active; 'I' for Inactive)
REMARK    1  A    between atoms: C_1  and  C_3 
REMARK    2  A    between atoms: C_1  and  O_7 
ROOT
HETATM    1  N   UNL     1      63.180  11.042   6.056  1.00  0.00    -0.191 NA
HETATM    2  C   UNL     1      63.083   8.481   3.560  1.00  0.00     0.060 A 
HETATM    3  C   UNL     1      63.459  10.124   5.400  1.00  0.00     0.100 C 
HETATM    4  C   UNL     1      63.836   8.968   4.641  1.00  0.00     0.060 A 
HETATM    5  C   UNL     1      63.479   7.287   2.931  1.00  0.00     0.019 A 
HETATM    6  C   UNL     1      64.989   8.273   5.047  1.00  0.00     0.024 A 
HETATM    7  C   UNL     1      64.617   6.598   3.353  1.00  0.00     0.001 A 
HETATM    8  C   UNL     1      65.378   7.096   4.406  1.00  0.00     0.002 A 
ENDROOT
BRANCH   2   9
HETATM    9  C   UNL     1      61.847   9.122   3.035  1.00  0.00     0.294 C 
HETATM   10  O   UNL     1      60.735   8.855   3.463  1.00  0.00    -0.259 OA
BRANCH   9  11
HETATM   11  O   UNL     1      62.125   9.947   2.002  1.00  0.00    -0.322 OA
HETATM   12  C   UNL     1      61.796  11.325   2.208  1.00  0.00     0.213 C 
ENDBRANCH   9  11
ENDBRANCH   2   9
TORSDOF 2
ENDMDL
MODEL 6
REMARK VINA RESULT:      -3.9      2.389      3.027
REMARK  2 active torsions:
REMARK  status: ('A' for Active; 'I' for Inactive)
REMARK    1  A    between atoms: C_1  and  C_3 
REMARK    2  A    between atoms: C_1  and  O_7 
ROOT
HETATM    1  N   UNL     1      61.775   4.906   4.263  1.00  0.00    -0.191 NA
HETATM    2  C   UNL     1      62.621   8.362   4.631  1.00  0.00     0.060 A 
HETATM    3  C   UNL     1      61.921   6.039   4.049  1.00  0.00     0.100 C 
HETATM    4  C   UNL     1      62.053   7.433   3.744  1.00  0.00     0.060 A 
HETATM    5  C   UNL     1      62.625   9.726   4.286  1.00  0.00     0.019 A 
HETATM    6  C   UNL     1      61.535   7.880   2.516  1.00  0.00     0.024 A 
HETATM    7  C   UNL     1      62.094  10.159   3.070  1.00  0.00     0.001 A 
HETATM    8  C   UNL     1      61.557   9.234   2.180  1.00  0.00     0.002 A 
ENDROOT
BRANCH   2   9
HETATM    9  C   UNL     1      63.201   8.018   5.957  1.00  0.00     0.294 C 
HETATM   10  O   UNL     1      62.511   7.766   6.932  1.00  0.00    -0.259 OA
BRANCH   9  11
HETATM   11  O   UNL     1      64.549   8.106   5.939  1.00  0.00    -0.322 OA
HETATM   12  C   UNL     1      65.249   6.933   6.367  1.00  0.00     0.213 C 
ENDBRANCH   9  11
ENDBRANCH   2   9
TORSDOF 2
ENDMDL
MODEL 7
REMARK VINA RESULT:      -3.8      3.755      5.635
REMARK  2 active torsions:
REMARK  status: ('A' for Active; 'I' for Inactive)
REMARK    1  A    between atoms: C_1  and  C_3 
REMARK    2  A    between atoms: C_1  and  O_7 
ROOT
HETATM    1  N   UNL     1      64.785   3.789   7.504  1.00  0.00    -0.191 NA
HETATM    2  C   UNL     1      65.056   6.978   5.908  1.00  0.00     0.060 A 
HETATM    3  C   UNL     1      65.221   4.749   7.017  1.00  0.00     0.100 C 
HETATM    4  C   UNL     1      65.811   5.900   6.399  1.00  0.00     0.060 A 
HETATM    5  C   UNL     1      65.713   8.024   5.233  1.00  0.00     0.019 A 
HETATM    6  C   UNL     1      67.208   5.906   6.239  1.00  0.00     0.024 A 
HETATM    7  C   UNL     1      67.098   8.011   5.068  1.00  0.00     0.001 A 
HETATM    8  C   UNL     1      67.848   6.956   5.578  1.00  0.00     0.002 A 
ENDROOT
BRANCH   2   9
HETATM    9  C   UNL     1      63.576   7.091   6.013  1.00  0.00     0.294 C 
HETATM   10  O   UNL     1      63.024   7.646   6.950  1.00  0.00    -0.259 OA
BRANCH   9  11
HETATM   11  O   UNL     1      62.964   6.442   4.999  1.00  0.00    -0.322 OA
HETATM   12  C   UNL     1      61.743   7.031   4.538  1.00  0.00     0.213 C 
ENDBRANCH   9  11
ENDBRANCH   2   9
TORSDOF 2
ENDMDL
MODEL 8
REMARK VINA RESULT:      -3.8      2.571      4.341
REMARK  2 active torsions:
REMARK  status: ('A' for Active; 'I' for Inactive)
REMARK    1  A    between atoms: C_1  and  C_3 
REMARK    2  A    between atoms: C_1  and  O_7 
ROOT
HETATM    1  N   UNL     1      63.210   6.555   2.373  1.00  0.00    -0.191 NA
HETATM    2  C   UNL     1      64.951   7.922   5.183  1.00  0.00     0.060 A 
HETATM    3  C   UNL     1      64.031   6.780   3.164  1.00  0.00     0.100 C 
HETATM    4  C   UNL     1      65.087   7.042   4.096  1.00  0.00     0.060 A 
HETATM    5  C   UNL     1      66.070   8.190   5.992  1.00  0.00     0.019 A 
HETATM    6  C   UNL     1      66.327   6.421   3.862  1.00  0.00     0.024 A 
HETATM    7  C   UNL     1      67.299   7.578   5.741  1.00  0.00     0.001 A 
HETATM    8  C   UNL     1      67.426   6.686   4.681  1.00  0.00     0.002 A 
ENDROOT
BRANCH   2   9
HETATM    9  C   UNL     1      63.697   8.640   5.536  1.00  0.00     0.294 C 
HETATM   10  O   UNL     1      62.914   8.223   6.374  1.00  0.00    -0.259 OA
BRANCH   9  11
HETATM   11  O   UNL     1      63.527   9.734   4.762  1.00  0.00    -0.322 OA
HETATM   12  C   UNL     1      62.836  10.825   5.380  1.00  0.00     0.213 C 
ENDBRANCH   9  11
ENDBRANCH   2   9
TORSDOF 2
ENDMDL
MODEL 9
REMARK VINA RESULT:      -3.7      3.239      4.822
REMARK  2 active torsions:
REMARK  status: ('A' for Active; 'I' for Inactive)
REMARK    1  A    between atoms: C_1  and  C_3 
REMARK    2  A    between atoms: C_1  and  O_7 
ROOT
HETATM    1  N   UNL     1      63.909   5.681   1.836  1.00  0.00    -0.191 NA
HETATM    2  C   UNL     1      62.314   8.796   2.578  1.00  0.00     0.060 A 
HETATM    3  C   UNL     1      63.552   6.637   2.392  1.00  0.00     0.100 C 
HETATM    4  C   UNL     1      63.164   7.813   3.113  1.00  0.00     0.060 A 
HETATM    5  C   UNL     1      62.062   9.963   3.323  1.00  0.00     0.019 A 
HETATM    6  C   UNL     1      63.714   7.999   4.394  1.00  0.00     0.024 A 
HETATM    7  C   UNL     1      62.624  10.142   4.587  1.00  0.00     0.001 A 
HETATM    8  C   UNL     1      63.444   9.156   5.127  1.00  0.00     0.002 A 
ENDROOT
BRANCH   2   9
HETATM    9  C   UNL     1      61.672   8.719   1.239  1.00  0.00     0.294 C 
HETATM   10  O   UNL     1      62.296   8.869   0.200  1.00  0.00    -0.259 OA
BRANCH   9  11
HETATM   11  O   UNL     1      60.337   8.547   1.346  1.00  0.00    -0.322 OA
HETATM   12  C   UNL     1      59.901   7.193   1.516  1.00  0.00     0.213 C 
ENDBRANCH   9  11
ENDBRANCH   2   9
TORSDOF 2
ENDMDL
