MODEL 1
REMARK VINA RESULT:      -5.1      0.000      0.000
REMARK  2 active torsions:
REMARK  status: ('A' for Active; 'I' for Inactive)
REMARK    1  A    between atoms: C_1  and  C_2 
REMARK    2  A    between atoms: C_1  and  O_5 
ROOT
HETATM    1  C   UNL     1      62.864   9.408   4.189  1.00  0.00     0.045 A 
HETATM    2  C   UNL     1      62.806   8.658   2.995  1.00  0.00    -0.046 A 
HETATM    3  C   UNL     1      62.384  10.732   4.200  1.00  0.00     0.018 A 
HETATM    4  C   UNL     1      63.327   7.259   2.820  1.00  0.00     0.049 C 
HETATM    5  C   UNL     1      62.234   9.259   1.855  1.00  0.00     0.008 A 
HETATM    6  C   UNL     1      61.831  11.309   3.058  1.00  0.00     0.001 A 
HETATM    7  C   UNL     1      61.754  10.569   1.885  1.00  0.00     0.001 A 
ENDROOT
BRANCH   1   8
HETATM    8  C   UNL     1      63.445   8.938   5.476  1.00  0.00     0.293 C 
HETATM    9  O   UNL     1      62.830   8.240   6.268  1.00  0.00    -0.259 OA
BRANCH   8  10
HETATM   10  O   UNL     1      64.746   9.304   5.590  1.00  0.00    -0.323 OA
HETATM   11  C   UNL     1      65.648   8.199   5.658  1.00  0.00     0.213 C 
ENDBRANCH   8  10
ENDBRANCH   1   8
TORSDOF 2
ENDMDL
MODEL 2
REMARK VINA RESULT:      -4.9      0.604      2.141
REMARK  2 active torsions:
REMARK  status: ('A' for Active; 'I' for Inactive)
REMARK    1  A    between atoms: C_1  and  C_2 
REMARK    2  A    between atoms: C_1  and  O_5 
ROOT
HETATM    1  C   UNL     1      62.925   9.105   3.959  1.00  0.00     0.045 A 
HETATM    2  C   UNL     1      62.311  10.306   3.545  1.00  0.00    -0.046 A 
HETATM    3  C   UNL     1      63.009   8.025   3.060  1.00  0.00     0.018 A 
HETATM    4  C   UNL     1      62.101  11.519   4.409  1.00  0.00     0.049 C 
HETATM    5  C   UNL     1      61.828  10.391   2.223  1.00  0.00     0.008 A 
HETATM    6  C   UNL     1      62.518   8.128   1.759  1.00  0.00     0.001 A 
HETATM    7  C   UNL     1      61.930   9.314   1.341  1.00  0.00     0.001 A 
ENDROOT
BRANCH   1   8
HETATM    8  C   UNL     1      63.473   8.839   5.317  1.00  0.00     0.293 C 
HETATM    9  O   UNL     1      62.848   8.242   6.181  1.00  0.00    -0.259 OA
BRANCH   8  10
HETATM   10  O   UNL     1      64.758   9.257   5.419  1.00  0.00    -0.323 OA
HETATM   11  C   UNL     1      65.686   8.201   5.673  1.00  0.00     0.213 C 
ENDBRANCH   8  10
ENDBRANCH   1   8
TORSDOF 2
ENDMDL
MODEL 3
REMARK VINA RESULT:      -4.7      1.130      2.504
REMARK  2 active torsions:
REMARK  status: ('A' for Active; 'I' for Inactive)
REMARK    1  A    between atoms: C_1  and  C_2 
REMARK    2  A    between atoms: C_1  and  O_5 
ROOT
HETATM    1  C   UNL     1      63.461   8.989   4.274  1.00  0.00     0.045 A 
HETATM    2  C   UNL     1      62.735  10.195   4.351  1.00  0.00    -0.046 A 
HETATM    3  C   UNL     1      63.281   8.141   3.164  1.00  0.00     0.018 A 
HETATM    4  C   UNL     1      62.782  11.168   5.496  1.00  0.00     0.049 C 
HETATM    5  C   UNL     1      61.871  10.526   3.287  1.00  0.00     0.008 A 
HETATM    6  C   UNL     1      62.415   8.484   2.127  1.00  0.00     0.001 A 
HETATM    7  C   UNL     1      61.712   9.680   2.188  1.00  0.00     0.001 A 
ENDROOT
BRANCH   1   8
HETATM    8  C   UNL     1      64.400   8.479   5.310  1.00  0.00     0.293 C 
HETATM    9  O   UNL     1      65.592   8.745   5.315  1.00  0.00    -0.259 OA
BRANCH   8  10
HETATM   10  O   UNL     1      63.743   7.779   6.268  1.00  0.00    -0.323 OA
HETATM   11  C   UNL     1      64.366   6.537   6.600  1.00  0.00     0.213 C 
ENDBRANCH   8  10
ENDBRANCH   1   8
TORSDOF 2
ENDMDL
MODEL 4
REMARK VINA RESULT:      -4.3      2.567      4.448
REMARK  2 active torsions:
REMARK  status: ('A' for Active; 'I' for Inactive)
REMARK    1  A    between atoms: C_1  and  C_2 
REMARK    2  A    between atoms: C_1  and  O_5 
ROOT
HETATM    1  C   UNL     1      62.240   9.405   2.752  1.00  0.00     0.045 A 
HETATM    2  C   UNL     1      62.071  10.758   3.113  1.00  0.00    -0.046 A 
HETATM    3  C   UNL     1      62.776   8.500   3.688  1.00  0.00     0.018 A 
HETATM    4  C   UNL     1      61.564  11.844   2.206  1.00  0.00     0.049 C 
HETATM    5  C   UNL     1      62.421  11.151   4.421  1.00  0.00     0.008 A 
HETATM    6  C   UNL     1      63.123   8.912   4.974  1.00  0.00     0.001 A 
HETATM    7  C   UNL     1      62.942  10.239   5.341  1.00  0.00     0.001 A 
ENDROOT
BRANCH   1   8
HETATM    8  C   UNL     1      61.938   8.824   1.416  1.00  0.00     0.293 C 
HETATM    9  O   UNL     1      62.529   9.154   0.399  1.00  0.00    -0.259 OA
BRANCH   8  10
HETATM   10  O   UNL     1      61.010   7.840   1.506  1.00  0.00    -0.323 OA
HETATM   11  C   UNL     1      59.978   7.934   0.522  1.00  0.00     0.213 C 
ENDBRANCH   8  10
ENDBRANCH   1   8
TORSDOF 2
ENDMDL
MODEL 5
REMARK VINA RESULT:      -4.1      1.819      2.952
REMARK  2 active torsions:
REMARK  status: ('A' for Active; 'I' for Inactive)
REMARK    1  A    between atoms: C_1  and  C_2 
REMARK    2  A    between atoms: C_1  and  O_5 
ROOT
HETATM    1  C   UNL     1      62.811   8.685   3.558  1.00  0.00     0.045 A 
HETATM    2  C   UNL     1      62.203   9.565   2.639  1.00  0.00    -0.046 A 
HETATM    3  C   UNL     1      63.135   9.145   4.848  1.00  0.00     0.018 A 
HETATM    4  C   UNL     1      61.852   9.232   1.216  1.00  0.00     0.049 C 
HETATM    5  C   UNL     1      61.911  10.878   3.062  1.00  0.00     0.008 A 
HETATM    6  C   UNL     1      62.845  10.450   5.244  1.00  0.00     0.001 A 
HETATM    7  C   UNL     1      62.229  11.316   4.349  1.00  0.00     0.001 A 
ENDROOT
BRANCH   1   8
HETATM    8  C   UNL     1      63.201   7.277   3.275  1.00  0.00     0.293 C 
HETATM    9  O   UNL     1      64.357   6.934   3.078  1.00  0.00    -0.259 OA
BRANCH   8  10
HETATM   10  O   UNL     1      62.134   6.444   3.362  1.00  0.00    -0.323 OA
HETATM   11  C   UNL     1      62.427   5.203   4.005  1.00  0.00     0.213 C 
ENDBRANCH   8  10
ENDBRANCH   1   8
TORSDOF 2
ENDMDL
MODEL 6
REMARK VINA RESULT:      -3.9      1.533      1.995
REMARK  2 active torsions:
REMARK  status: ('A' for Active; 'I' for Inactive)
REMARK    1  A    between atoms: C_1  and  C_2 
REMARK    2  A    between atoms: C_1  and  O_5 
ROOT
HETATM    1  C   UNL     1      62.475   8.892   3.497  1.00  0.00     0.045 A 
HETATM    2  C   UNL     1      62.411   8.842   2.089  1.00  0.00    -0.046 A 
HETATM    3  C   UNL     1      62.134  10.084   4.164  1.00  0.00     0.018 A 
HETATM    4  C   UNL     1      62.795   7.662   1.241  1.00  0.00     0.049 C 
HETATM    5  C   UNL     1      61.973   9.991   1.397  1.00  0.00     0.008 A 
HETATM    6  C   UNL     1      61.711  11.211   3.460  1.00  0.00     0.001 A 
HETATM    7  C   UNL     1      61.628  11.162   2.074  1.00  0.00     0.001 A 
ENDROOT
BRANCH   1   8
HETATM    8  C   UNL     1      62.927   7.784   4.380  1.00  0.00     0.293 C 
HETATM    9  O   UNL     1      64.092   7.637   4.720  1.00  0.00    -0.259 OA
BRANCH   8  10
HETATM   10  O   UNL     1      61.879   7.042   4.814  1.00  0.00    -0.323 OA
HETATM   11  C   UNL     1      62.182   6.231   5.951  1.00  0.00     0.213 C 
ENDBRANCH   8  10
ENDBRANCH   1   8
TORSDOF 2
ENDMDL
MODEL 7
REMARK VINA RESULT:      -3.7      1.639      4.224
REMARK  2 active torsions:
REMARK  status: ('A' for Active; 'I' for Inactive)
REMARK    1  A    between atoms: C_1  and  C_2 
REMARK    2  A    between atoms: C_1  and  O_5 
ROOT
HETATM    1  C   UNL     1      64.936   7.751   5.364  1.00  0.00     0.045 A 
HETATM    2  C   UNL     1      65.050   6.985   4.185  1.00  0.00    -0.046 A 
HETATM    3  C   UNL     1      66.070   7.948   6.175  1.00  0.00     0.018 A 
HETATM    4  C   UNL     1      63.919   6.647   3.255  1.00  0.00     0.049 C 
HETATM    5  C   UNL     1      66.315   6.466   3.844  1.00  0.00     0.008 A 
HETATM    6  C   UNL     1      67.310   7.418   5.822  1.00  0.00     0.001 A 
HETATM    7  C   UNL     1      67.433   6.679   4.653  1.00  0.00     0.001 A 
ENDROOT
BRANCH   1   8
HETATM    8  C   UNL     1      63.679   8.358   5.881  1.00  0.00     0.293 C 
HETATM    9  O   UNL     1      62.907   7.763   6.617  1.00  0.00    -0.259 OA
BRANCH   8  10
HETATM   10  O   UNL     1      63.571   9.657   5.506  1.00  0.00    -0.323 OA
HETATM   11  C   UNL     1      62.553   9.888   4.530  1.00  0.00     0.213 C 
ENDBRANCH   8  10
ENDBRANCH   1   8
TORSDOF 2
ENDMDL
MODEL 8
REMARK VINA RESULT:      -3.5      3.167      4.885
REMARK  2 active torsions:
REMARK  status: ('A' for Active; 'I' for Inactive)
REMARK    1  A    between atoms: C_1  and  C_2 
REMARK    2  A    between atoms: C_1  and  O_5 
ROOT
HETATM    1  C   UNL     1      64.782   6.887   6.004  1.00  0.00     0.045 A 
HETATM    2  C   UNL     1      65.231   6.951   4.668  1.00  0.00    -0.046 A 
HETATM    3  C   UNL     1      65.722   6.827   7.049  1.00  0.00     0.018 A 
HETATM    4  C   UNL     1      64.348   6.965   3.452  1.00  0.00     0.049 C 
HETATM    5  C   UNL     1      66.621   6.983   4.430  1.00  0.00     0.008 A 
HETATM    6  C   UNL     1      67.092   6.852   6.791  1.00  0.00     0.001 A 
HETATM    7  C   UNL     1      67.541   6.934   5.479  1.00  0.00     0.001 A 
ENDROOT
BRANCH   1   8
HETATM    8  C   UNL     1      63.358   6.830   6.433  1.00  0.00     0.293 C 
HETATM    9  O   UNL     1      62.736   7.812   6.808  1.00  0.00    -0.259 OA
BRANCH   8  10
HETATM   10  O   UNL     1      62.843   5.587   6.261  1.00  0.00    -0.323 OA
HETATM   11  C   UNL     1      61.439   5.509   6.516  1.00  0.00     0.213 C 
ENDBRANCH   8  10
ENDBRANCH   1   8
TORSDOF 2
ENDMDL
MODEL 9
REMARK VINA RESULT:      -3.3      2.335      3.170
REMARK  2 active torsions:
REMARK  status: ('A' for Active; 'I' for Inactive)
REMARK    1  A    between atoms: C_1  and  C_2 
REMARK    2  A    between atoms: C_1  and  O_5 
ROOT
HETATM    1  C   UNL     1      61.986   7.534   4.716  1.00  0.00     0.045 A 
HETATM    2  C   UNL     1      62.994   8.287   4.078  1.00  0.00    -0.046 A 
HETATM    3  C   UNL     1      60.751   7.342   4.069  1.00  0.00     0.018 A 
HETATM    4  C   UNL     1      64.337   8.619   4.667  1.00  0.00     0.049 C 
HETATM    5  C   UNL     1      62.734   8.798   2.789  1.00  0.00     0.008 A 
HETATM    6  C   UNL     1      60.512   7.863   2.798  1.00  0.00     0.001 A 
HETATM    7  C   UNL     1      61.507   8.589   2.157  1.00  0.00     0.001 A 
ENDROOT
BRANCH   1   8
HETATM    8  C   UNL     1      62.085   6.937   6.075  1.00  0.00     0.293 C 
HETATM    9  O   UNL     1      62.413   7.580   7.061  1.00  0.00    -0.259 OA
BRANCH   8  10
HETATM   10  O   UNL     1      61.679   5.644   6.075  1.00  0.00    -0.323 OA
HETATM   11  C   UNL     1      60.694   5.352   7.068  1.00  0.00     0.213 C 
ENDBRANCH   8  10
ENDBRANCH   1   8
TORSDOF 2
ENDMDL
