MODEL 1
REMARK VINA RESULT:      -4.2      0.000      0.000
REMARK  1 active torsions:
REMARK  status: ('A' for Active; 'I' for Inactive)
REMARK    1  A    between atoms: C_1  and  C_8 
ROOT
HETATM    1  C   UNL     1      62.107   9.912   3.994  1.00  0.00     0.051 A 
HETATM    2  S   UNL     1      63.269   9.632   5.227  1.00  0.00    -0.076 SA
HETATM    3  C   UNL     1      62.933   7.959   5.276  1.00  0.00     0.086 A 
HETATM    4  C   UNL     1      61.480   8.735   3.628  1.00  0.00     0.025 A 
HETATM    5  N   UNL     1      64.106   6.281   6.862  1.00  0.00    -0.191 NA
HETATM    6  C   UNL     1      63.590   7.047   6.157  1.00  0.00     0.107 C 
HETATM    7  C   UNL     1      61.957   7.610   4.367  1.00  0.00     0.032 A 
ENDROOT
BRANCH   1   8
HETATM    8  C   UNL     1      61.907  11.266   3.489  1.00  0.00     0.162 C 
HETATM    9  O   UNL     1      61.812  12.264   4.205  1.00  0.00    -0.292 OA
HETATM   10  C   UNL     1      61.812  11.419   1.987  1.00  0.00     0.097 C 
ENDBRANCH   1   8
TORSDOF 1
ENDMDL
MODEL 2
REMARK VINA RESULT:      -4.1      2.887      3.605
REMARK  1 active torsions:
REMARK  status: ('A' for Active; 'I' for Inactive)
REMARK    1  A    between atoms: C_1  and  C_8 
ROOT
HETATM    1  C   UNL     1      61.936  10.056   3.186  1.00  0.00     0.051 A 
HETATM    2  S   UNL     1      61.505   8.438   3.566  1.00  0.00    -0.076 SA
HETATM    3  C   UNL     1      61.345   8.009   1.922  1.00  0.00     0.086 A 
HETATM    4  C   UNL     1      61.959  10.253   1.817  1.00  0.00     0.025 A 
HETATM    5  N   UNL     1      60.669   5.651   1.090  1.00  0.00    -0.191 NA
HETATM    6  C   UNL     1      60.971   6.702   1.480  1.00  0.00     0.107 C 
HETATM    7  C   UNL     1      61.619   9.072   1.090  1.00  0.00     0.032 A 
ENDROOT
BRANCH   1   8
HETATM    8  C   UNL     1      62.214  11.000   4.264  1.00  0.00     0.162 C 
HETATM    9  O   UNL     1      61.829  12.171   4.274  1.00  0.00    -0.292 OA
HETATM   10  C   UNL     1      63.027  10.476   5.425  1.00  0.00     0.097 C 
ENDBRANCH   1   8
TORSDOF 1
ENDMDL
MODEL 3
REMARK VINA RESULT:      -4.0      1.266      1.338
REMARK  1 active torsions:
REMARK  status: ('A' for Active; 'I' for Inactive)
REMARK    1  A    between atoms: C_1  and  C_8 
ROOT
HETATM    1  C   UNL     1      62.791   9.183   3.668  1.00  0.00     0.051 A 
HETATM    2  S   UNL     1      63.314   9.352   5.294  1.00  0.00    -0.076 SA
HETATM    3  C   UNL     1      64.045   7.809   5.304  1.00  0.00     0.086 A 
HETATM    4  C   UNL     1      63.179   7.962   3.147  1.00  0.00     0.025 A 
HETATM    5  N   UNL     1      65.268   6.789   7.346  1.00  0.00    -0.191 NA
HETATM    6  C   UNL     1      64.717   7.261   6.440  1.00  0.00     0.107 C 
HETATM    7  C   UNL     1      63.902   7.172   4.091  1.00  0.00     0.032 A 
ENDROOT
BRANCH   1   8
HETATM    8  C   UNL     1      62.040  10.264   3.037  1.00  0.00     0.162 C 
HETATM    9  O   UNL     1      61.612  11.251   3.639  1.00  0.00    -0.292 OA
HETATM   10  C   UNL     1      61.788  10.133   1.552  1.00  0.00     0.097 C 
ENDBRANCH   1   8
TORSDOF 1
ENDMDL
MODEL 4
REMARK VINA RESULT:      -3.8      6.254      8.294
REMARK  1 active torsions:
REMARK  status: ('A' for Active; 'I' for Inactive)
REMARK    1  A    between atoms: C_1  and  C_8 
ROOT
HETATM    1  C   UNL     1      67.309   4.623   8.284  1.00  0.00     0.051 A 
HETATM    2  S   UNL     1      66.735   5.213   6.777  1.00  0.00    -0.076 SA
HETATM    3  C   UNL     1      66.646   6.819   7.348  1.00  0.00     0.086 A 
HETATM    4  C   UNL     1      67.432   5.650   9.203  1.00  0.00     0.025 A 
HETATM    5  N   UNL     1      65.846   8.830   5.926  1.00  0.00    -0.191 NA
HETATM    6  C   UNL     1      66.202   7.918   6.550  1.00  0.00     0.107 C 
HETATM    7  C   UNL     1      67.050   6.914   8.662  1.00  0.00     0.032 A 
ENDROOT
BRANCH   1   8
HETATM    8  C   UNL     1      67.590   3.199   8.440  1.00  0.00     0.162 C 
HETATM    9  O   UNL     1      67.457   2.580   9.497  1.00  0.00    -0.292 OA
HETATM   10  C   UNL     1      68.075   2.469   7.208  1.00  0.00     0.097 C 
ENDBRANCH   1   8
TORSDOF 1
ENDMDL
MODEL 5
REMARK VINA RESULT:      -3.8      2.020      2.299
REMARK  1 active torsions:
REMARK  status: ('A' for Active; 'I' for Inactive)
REMARK    1  A    between atoms: C_1  and  C_8 
ROOT
HETATM    1  C   UNL     1      62.237   9.458   3.694  1.00  0.00     0.051 A 
HETATM    2  S   UNL     1      60.959   8.331   3.480  1.00  0.00    -0.076 SA
HETATM    3  C   UNL     1      61.963   7.000   3.846  1.00  0.00     0.086 A 
HETATM    4  C   UNL     1      63.410   8.814   4.046  1.00  0.00     0.025 A 
HETATM    5  N   UNL     1      61.170   4.535   3.857  1.00  0.00    -0.191 NA
HETATM    6  C   UNL     1      61.509   5.645   3.848  1.00  0.00     0.107 C 
HETATM    7  C   UNL     1      63.251   7.398   4.134  1.00  0.00     0.032 A 
ENDROOT
BRANCH   1   8
HETATM    8  C   UNL     1      61.982  10.881   3.497  1.00  0.00     0.162 C 
HETATM    9  O   UNL     1      61.895  11.701   4.413  1.00  0.00    -0.292 OA
HETATM   10  C   UNL     1      61.819  11.345   2.068  1.00  0.00     0.097 C 
ENDBRANCH   1   8
TORSDOF 1
ENDMDL
MODEL 6
REMARK VINA RESULT:      -3.7      4.951      6.213
REMARK  1 active torsions:
REMARK  status: ('A' for Active; 'I' for Inactive)
REMARK    1  A    between atoms: C_1  and  C_8 
ROOT
HETATM    1  C   UNL     1      66.508   6.972   7.080  1.00  0.00     0.051 A 
HETATM    2  S   UNL     1      66.548   5.280   6.794  1.00  0.00    -0.076 SA
HETATM    3  C   UNL     1      67.158   4.948   8.354  1.00  0.00     0.086 A 
HETATM    4  C   UNL     1      66.952   7.268   8.357  1.00  0.00     0.025 A 
HETATM    5  N   UNL     1      67.704   2.574   9.231  1.00  0.00    -0.191 NA
HETATM    6  C   UNL     1      67.453   3.631   8.822  1.00  0.00     0.107 C 
HETATM    7  C   UNL     1      67.325   6.102   9.089  1.00  0.00     0.032 A 
ENDROOT
BRANCH   1   8
HETATM    8  C   UNL     1      66.046   7.870   6.027  1.00  0.00     0.162 C 
HETATM    9  O   UNL     1      65.777   9.060   6.201  1.00  0.00    -0.292 OA
HETATM   10  C   UNL     1      65.896   7.270   4.647  1.00  0.00     0.097 C 
ENDBRANCH   1   8
TORSDOF 1
ENDMDL
MODEL 7
REMARK VINA RESULT:      -3.6      2.430      2.697
REMARK  1 active torsions:
REMARK  status: ('A' for Active; 'I' for Inactive)
REMARK    1  A    between atoms: C_1  and  C_8 
ROOT
HETATM    1  C   UNL     1      62.867   8.253   3.362  1.00  0.00     0.051 A 
HETATM    2  S   UNL     1      63.459   9.203   4.664  1.00  0.00    -0.076 SA
HETATM    3  C   UNL     1      64.802   8.178   4.908  1.00  0.00     0.086 A 
HETATM    4  C   UNL     1      63.696   7.172   3.122  1.00  0.00     0.025 A 
HETATM    5  N   UNL     1      66.600   8.541   6.736  1.00  0.00    -0.191 NA
HETATM    6  C   UNL     1      65.786   8.393   5.922  1.00  0.00     0.107 C 
HETATM    7  C   UNL     1      64.810   7.130   4.013  1.00  0.00     0.032 A 
ENDROOT
BRANCH   1   8
HETATM    8  C   UNL     1      61.637   8.648   2.684  1.00  0.00     0.162 C 
HETATM    9  O   UNL     1      60.528   8.169   2.929  1.00  0.00    -0.292 OA
HETATM   10  C   UNL     1      61.766   9.712   1.617  1.00  0.00     0.097 C 
ENDBRANCH   1   8
TORSDOF 1
ENDMDL
MODEL 8
REMARK VINA RESULT:      -3.6      3.871      5.089
REMARK  1 active torsions:
REMARK  status: ('A' for Active; 'I' for Inactive)
REMARK    1  A    between atoms: C_1  and  C_8 
ROOT
HETATM    1  C   UNL     1      65.145   7.216   4.512  1.00  0.00     0.051 A 
HETATM    2  S   UNL     1      64.589   8.694   5.187  1.00  0.00    -0.076 SA
HETATM    3  C   UNL     1      63.326   8.832   4.047  1.00  0.00     0.086 A 
HETATM    4  C   UNL     1      64.365   6.840   3.434  1.00  0.00     0.025 A 
HETATM    5  N   UNL     1      61.636  10.793   3.974  1.00  0.00    -0.191 NA
HETATM    6  C   UNL     1      62.401   9.921   4.021  1.00  0.00     0.107 C 
HETATM    7  C   UNL     1      63.317   7.772   3.167  1.00  0.00     0.032 A 
ENDROOT
BRANCH   1   8
HETATM    8  C   UNL     1      66.303   6.548   5.098  1.00  0.00     0.162 C 
HETATM    9  O   UNL     1      66.276   5.415   5.582  1.00  0.00    -0.292 OA
HETATM   10  C   UNL     1      67.601   7.324   5.096  1.00  0.00     0.097 C 
ENDBRANCH   1   8
TORSDOF 1
ENDMDL
MODEL 9
REMARK VINA RESULT:      -3.5      2.662      3.126
REMARK  1 active torsions:
REMARK  status: ('A' for Active; 'I' for Inactive)
REMARK    1  A    between atoms: C_1  and  C_8 
ROOT
HETATM    1  C   UNL     1      63.153   9.137   4.201  1.00  0.00     0.051 A 
HETATM    2  S   UNL     1      62.655   8.192   2.856  1.00  0.00    -0.076 SA
HETATM    3  C   UNL     1      63.870   7.023   3.124  1.00  0.00     0.086 A 
HETATM    4  C   UNL     1      64.231   8.554   4.843  1.00  0.00     0.025 A 
HETATM    5  N   UNL     1      64.223   4.923   1.651  1.00  0.00    -0.191 NA
HETATM    6  C   UNL     1      64.051   5.869   2.302  1.00  0.00     0.107 C 
HETATM    7  C   UNL     1      64.643   7.336   4.222  1.00  0.00     0.032 A 
ENDROOT
BRANCH   1   8
HETATM    8  C   UNL     1      62.444  10.373   4.514  1.00  0.00     0.162 C 
HETATM    9  O   UNL     1      61.482  10.799   3.873  1.00  0.00    -0.292 OA
HETATM   10  C   UNL     1      62.947  11.156   5.706  1.00  0.00     0.097 C 
ENDBRANCH   1   8
TORSDOF 1
ENDMDL
