MODEL 1
REMARK VINA RESULT:      -4.8      0.000      0.000
REMARK  3 active torsions:
REMARK  status: ('A' for Active; 'I' for Inactive)
REMARK    1  A    between atoms: C_1  and  C_2 
REMARK    2  A    between atoms: C_1  and  O_6 
REMARK    3  A    between atoms: C_5  and  N_7 
ROOT
HETATM    1  C   UNL     1      62.844   9.484   4.209  1.00  0.00     0.041 A 
HETATM    2  C   UNL     1      62.767   8.773   3.001  1.00  0.00     0.046 A 
HETATM    3  C   UNL     1      62.186   9.351   1.867  1.00  0.00     0.026 A 
HETATM    4  C   UNL     1      62.365  10.799   4.266  1.00  0.00     0.018 A 
HETATM    5  C   UNL     1      61.833  11.400   3.126  1.00  0.00     0.003 A 
HETATM    6  C   UNL     1      61.767  10.683   1.930  1.00  0.00     0.029 A 
ENDROOT
BRANCH   1   7
HETATM    7  C   UNL     1      63.449   8.911   5.441  1.00  0.00     0.293 C 
HETATM    8  O   UNL     1      62.829   8.209   6.226  1.00  0.00    -0.259 OA
BRANCH   7   9
HETATM    9  O   UNL     1      64.752   9.268   5.553  1.00  0.00    -0.323 OA
HETATM   10  C   UNL     1      65.677   8.177   5.559  1.00  0.00     0.213 C 
ENDBRANCH   7   9
ENDBRANCH   1   7
BRANCH   3  11
HETATM   11  N   UNL     1      62.240   8.693   0.633  1.00  0.00    -0.399 N 
HETATM   12  H   UNL     1      62.914   7.991   0.479  1.00  0.00     0.156 HD
HETATM   13  H   UNL     1      61.607   8.934  -0.082  1.00  0.00     0.156 HD
ENDBRANCH   3  11
TORSDOF 3
ENDMDL
MODEL 2
REMARK VINA RESULT:      -4.7      1.191      1.915
REMARK  3 active torsions:
REMARK  status: ('A' for Active; 'I' for Inactive)
REMARK    1  A    between atoms: C_1  and  C_2 
REMARK    2  A    between atoms: C_1  and  O_6 
REMARK    3  A    between atoms: C_5  and  N_7 
ROOT
HETATM    1  C   UNL     1      62.947   9.095   4.009  1.00  0.00     0.041 A 
HETATM    2  C   UNL     1      62.434  10.353   3.654  1.00  0.00     0.046 A 
HETATM    3  C   UNL     1      61.968  10.593   2.357  1.00  0.00     0.026 A 
HETATM    4  C   UNL     1      62.957   8.063   3.063  1.00  0.00     0.018 A 
HETATM    5  C   UNL     1      62.444   8.280   1.786  1.00  0.00     0.003 A 
HETATM    6  C   UNL     1      61.932   9.534   1.446  1.00  0.00     0.029 A 
ENDROOT
BRANCH   1   7
HETATM    7  C   UNL     1      63.458   8.794   5.373  1.00  0.00     0.293 C 
HETATM    8  O   UNL     1      62.795   8.221   6.225  1.00  0.00    -0.259 OA
BRANCH   7   9
HETATM    9  O   UNL     1      64.733   9.232   5.522  1.00  0.00    -0.323 OA
HETATM   10  C   UNL     1      65.717   8.198   5.610  1.00  0.00     0.213 C 
ENDBRANCH   7   9
ENDBRANCH   1   7
BRANCH   3  11
HETATM   11  N   UNL     1      61.328  11.800   2.050  1.00  0.00    -0.399 N 
HETATM   12  H   UNL     1      60.481  12.035   2.493  1.00  0.00     0.156 HD
HETATM   13  H   UNL     1      61.725  12.413   1.389  1.00  0.00     0.156 HD
ENDBRANCH   3  11
TORSDOF 3
ENDMDL
MODEL 3
REMARK VINA RESULT:      -4.3      3.040      4.333
REMARK  3 active torsions:
REMARK  status: ('A' for Active; 'I' for Inactive)
REMARK    1  A    between atoms: C_1  and  C_2 
REMARK    2  A    between atoms: C_1  and  O_6 
REMARK    3  A    between atoms: C_5  and  N_7 
ROOT
HETATM    1  C   UNL     1      62.226   9.467   2.858  1.00  0.00     0.041 A 
HETATM    2  C   UNL     1      63.025   8.701   3.721  1.00  0.00     0.046 A 
HETATM    3  C   UNL     1      63.479   9.231   4.933  1.00  0.00     0.026 A 
HETATM    4  C   UNL     1      61.852  10.763   3.234  1.00  0.00     0.018 A 
HETATM    5  C   UNL     1      62.257  11.279   4.464  1.00  0.00     0.003 A 
HETATM    6  C   UNL     1      63.047  10.505   5.316  1.00  0.00     0.029 A 
ENDROOT
BRANCH   1   7
HETATM    7  C   UNL     1      61.722   8.948   1.558  1.00  0.00     0.293 C 
HETATM    8  O   UNL     1      62.332   9.074   0.507  1.00  0.00    -0.259 OA
BRANCH   7   9
HETATM    9  O   UNL     1      60.526   8.329   1.713  1.00  0.00    -0.323 OA
HETATM   10  C   UNL     1      59.813   8.085   0.497  1.00  0.00     0.213 C 
ENDBRANCH   7   9
ENDBRANCH   1   7
BRANCH   3  11
HETATM   11  N   UNL     1      64.153   8.418   5.851  1.00  0.00    -0.399 N 
HETATM   12  H   UNL     1      64.957   7.921   5.571  1.00  0.00     0.156 HD
HETATM   13  H   UNL     1      63.824   8.341   6.776  1.00  0.00     0.156 HD
ENDBRANCH   3  11
TORSDOF 3
ENDMDL
MODEL 4
REMARK VINA RESULT:      -4.3      1.700      2.608
REMARK  3 active torsions:
REMARK  status: ('A' for Active; 'I' for Inactive)
REMARK    1  A    between atoms: C_1  and  C_2 
REMARK    2  A    between atoms: C_1  and  O_6 
REMARK    3  A    between atoms: C_5  and  N_7 
ROOT
HETATM    1  C   UNL     1      62.531   8.699   3.869  1.00  0.00     0.041 A 
HETATM    2  C   UNL     1      62.191  10.037   3.615  1.00  0.00     0.046 A 
HETATM    3  C   UNL     1      61.982  10.485   2.307  1.00  0.00     0.026 A 
HETATM    4  C   UNL     1      62.626   7.798   2.801  1.00  0.00     0.018 A 
HETATM    5  C   UNL     1      62.367   8.225   1.500  1.00  0.00     0.003 A 
HETATM    6  C   UNL     1      62.025   9.558   1.261  1.00  0.00     0.029 A 
ENDROOT
BRANCH   1   7
HETATM    7  C   UNL     1      62.767   8.177   5.242  1.00  0.00     0.293 C 
HETATM    8  O   UNL     1      63.059   8.893   6.188  1.00  0.00    -0.259 OA
BRANCH   7   9
HETATM    9  O   UNL     1      62.609   6.831   5.283  1.00  0.00    -0.323 OA
HETATM   10  C   UNL     1      61.666   6.367   6.253  1.00  0.00     0.213 C 
ENDBRANCH   7   9
ENDBRANCH   1   7
BRANCH   3  11
HETATM   11  N   UNL     1      61.506  11.780   2.072  1.00  0.00    -0.399 N 
HETATM   12  H   UNL     1      61.073  11.998   1.214  1.00  0.00     0.156 HD
HETATM   13  H   UNL     1      61.604  12.474   2.764  1.00  0.00     0.156 HD
ENDBRANCH   3  11
TORSDOF 3
ENDMDL
MODEL 5
REMARK VINA RESULT:      -4.3      1.240      1.753
REMARK  3 active torsions:
REMARK  status: ('A' for Active; 'I' for Inactive)
REMARK    1  A    between atoms: C_1  and  C_2 
REMARK    2  A    between atoms: C_1  and  O_6 
REMARK    3  A    between atoms: C_5  and  N_7 
ROOT
HETATM    1  C   UNL     1      63.828   8.828   4.700  1.00  0.00     0.041 A 
HETATM    2  C   UNL     1      63.473   8.224   3.483  1.00  0.00     0.046 A 
HETATM    3  C   UNL     1      62.464   8.770   2.683  1.00  0.00     0.026 A 
HETATM    4  C   UNL     1      63.187  10.008   5.096  1.00  0.00     0.018 A 
HETATM    5  C   UNL     1      62.219  10.588   4.278  1.00  0.00     0.003 A 
HETATM    6  C   UNL     1      61.878   9.980   3.068  1.00  0.00     0.029 A 
ENDROOT
BRANCH   1   7
HETATM    7  C   UNL     1      64.891   8.282   5.587  1.00  0.00     0.293 C 
HETATM    8  O   UNL     1      66.076   8.545   5.449  1.00  0.00    -0.259 OA
BRANCH   7   9
HETATM    9  O   UNL     1      64.361   7.480   6.542  1.00  0.00    -0.323 OA
HETATM   10  C   UNL     1      65.288   6.576   7.150  1.00  0.00     0.213 C 
ENDBRANCH   7   9
ENDBRANCH   1   7
BRANCH   3  11
HETATM   11  N   UNL     1      62.214   8.248   1.409  1.00  0.00    -0.399 N 
HETATM   12  H   UNL     1      62.844   8.424   0.673  1.00  0.00     0.156 HD
HETATM   13  H   UNL     1      61.407   7.706   1.248  1.00  0.00     0.156 HD
ENDBRANCH   3  11
TORSDOF 3
ENDMDL
MODEL 6
REMARK VINA RESULT:      -4.3      1.050      1.672
REMARK  3 active torsions:
REMARK  status: ('A' for Active; 'I' for Inactive)
REMARK    1  A    between atoms: C_1  and  C_2 
REMARK    2  A    between atoms: C_1  and  O_6 
REMARK    3  A    between atoms: C_5  and  N_7 
ROOT
HETATM    1  C   UNL     1      63.022   8.998   3.892  1.00  0.00     0.041 A 
HETATM    2  C   UNL     1      63.114   7.963   2.947  1.00  0.00     0.046 A 
HETATM    3  C   UNL     1      62.497   8.080   1.698  1.00  0.00     0.026 A 
HETATM    4  C   UNL     1      62.335  10.173   3.562  1.00  0.00     0.018 A 
HETATM    5  C   UNL     1      61.764  10.318   2.299  1.00  0.00     0.003 A 
HETATM    6  C   UNL     1      61.866   9.283   1.367  1.00  0.00     0.029 A 
ENDROOT
BRANCH   1   7
HETATM    7  C   UNL     1      63.657   8.918   5.235  1.00  0.00     0.293 C 
HETATM    8  O   UNL     1      64.791   9.310   5.462  1.00  0.00    -0.259 OA
BRANCH   7   9
HETATM    9  O   UNL     1      62.811   8.366   6.139  1.00  0.00    -0.323 OA
HETATM   10  C   UNL     1      62.965   6.956   6.324  1.00  0.00     0.213 C 
ENDBRANCH   7   9
ENDBRANCH   1   7
BRANCH   3  11
HETATM   11  N   UNL     1      62.711   7.110   0.712  1.00  0.00    -0.399 N 
HETATM   12  H   UNL     1      61.953   6.768   0.185  1.00  0.00     0.156 HD
HETATM   13  H   UNL     1      63.620   6.769   0.545  1.00  0.00     0.156 HD
ENDBRANCH   3  11
TORSDOF 3
ENDMDL
MODEL 7
REMARK VINA RESULT:      -4.2      2.665      3.162
REMARK  3 active torsions:
REMARK  status: ('A' for Active; 'I' for Inactive)
REMARK    1  A    between atoms: C_1  and  C_2 
REMARK    2  A    between atoms: C_1  and  O_6 
REMARK    3  A    between atoms: C_5  and  N_7 
ROOT
HETATM    1  C   UNL     1      63.305   8.628   3.973  1.00  0.00     0.041 A 
HETATM    2  C   UNL     1      63.665   9.401   5.088  1.00  0.00     0.046 A 
HETATM    3  C   UNL     1      63.165  10.697   5.250  1.00  0.00     0.026 A 
HETATM    4  C   UNL     1      62.407   9.150   3.034  1.00  0.00     0.018 A 
HETATM    5  C   UNL     1      61.863  10.420   3.216  1.00  0.00     0.003 A 
HETATM    6  C   UNL     1      62.225  11.177   4.332  1.00  0.00     0.029 A 
ENDROOT
BRANCH   1   7
HETATM    7  C   UNL     1      63.814   7.247   3.756  1.00  0.00     0.293 C 
HETATM    8  O   UNL     1      63.918   6.739   2.650  1.00  0.00    -0.259 OA
BRANCH   7   9
HETATM    9  O   UNL     1      64.139   6.659   4.933  1.00  0.00    -0.323 OA
HETATM   10  C   UNL     1      65.315   5.847   4.895  1.00  0.00     0.213 C 
ENDBRANCH   7   9
ENDBRANCH   1   7
BRANCH   3  11
HETATM   11  N   UNL     1      63.413  11.407   6.431  1.00  0.00    -0.399 N 
HETATM   12  H   UNL     1      63.645  12.363   6.391  1.00  0.00     0.156 HD
HETATM   13  H   UNL     1      63.356  10.950   7.301  1.00  0.00     0.156 HD
ENDBRANCH   3  11
TORSDOF 3
ENDMDL
MODEL 8
REMARK VINA RESULT:      -4.1      2.743      3.530
REMARK  3 active torsions:
REMARK  status: ('A' for Active; 'I' for Inactive)
REMARK    1  A    between atoms: C_1  and  C_2 
REMARK    2  A    between atoms: C_1  and  O_6 
REMARK    3  A    between atoms: C_5  and  N_7 
ROOT
HETATM    1  C   UNL     1      62.554   8.935   3.365  1.00  0.00     0.041 A 
HETATM    2  C   UNL     1      62.916   9.350   4.657  1.00  0.00     0.046 A 
HETATM    3  C   UNL     1      62.752  10.683   5.050  1.00  0.00     0.026 A 
HETATM    4  C   UNL     1      61.992   9.859   2.477  1.00  0.00     0.018 A 
HETATM    5  C   UNL     1      61.776  11.176   2.879  1.00  0.00     0.003 A 
HETATM    6  C   UNL     1      62.135  11.575   4.168  1.00  0.00     0.029 A 
ENDROOT
BRANCH   1   7
HETATM    7  C   UNL     1      62.713   7.531   2.901  1.00  0.00     0.293 C 
HETATM    8  O   UNL     1      62.991   7.235   1.748  1.00  0.00    -0.259 OA
BRANCH   7   9
HETATM    9  O   UNL     1      62.516   6.657   3.919  1.00  0.00    -0.323 OA
HETATM   10  C   UNL     1      61.193   6.118   4.000  1.00  0.00     0.213 C 
ENDBRANCH   7   9
ENDBRANCH   1   7
BRANCH   3  11
HETATM   11  N   UNL     1      62.979  11.059   6.379  1.00  0.00    -0.399 N 
HETATM   12  H   UNL     1      62.906  10.392   7.099  1.00  0.00     0.156 HD
HETATM   13  H   UNL     1      63.210  11.992   6.594  1.00  0.00     0.156 HD
ENDBRANCH   3  11
TORSDOF 3
ENDMDL
MODEL 9
REMARK VINA RESULT:      -4.1      2.138      2.733
REMARK  3 active torsions:
REMARK  status: ('A' for Active; 'I' for Inactive)
REMARK    1  A    between atoms: C_1  and  C_2 
REMARK    2  A    between atoms: C_1  and  O_6 
REMARK    3  A    between atoms: C_5  and  N_7 
ROOT
HETATM    1  C   UNL     1      61.730   9.554   3.222  1.00  0.00     0.041 A 
HETATM    2  C   UNL     1      60.930   8.421   3.440  1.00  0.00     0.046 A 
HETATM    3  C   UNL     1      60.514   7.624   2.369  1.00  0.00     0.026 A 
HETATM    4  C   UNL     1      62.143   9.865   1.921  1.00  0.00     0.018 A 
HETATM    5  C   UNL     1      61.777   9.045   0.855  1.00  0.00     0.003 A 
HETATM    6  C   UNL     1      60.985   7.918   1.086  1.00  0.00     0.029 A 
ENDROOT
BRANCH   1   7
HETATM    7  C   UNL     1      62.193  10.435   4.328  1.00  0.00     0.293 C 
HETATM    8  O   UNL     1      62.058  11.649   4.317  1.00  0.00    -0.259 OA
BRANCH   7   9
HETATM    9  O   UNL     1      62.764   9.708   5.320  1.00  0.00    -0.323 OA
HETATM   10  C   UNL     1      64.074   9.213   5.025  1.00  0.00     0.213 C 
ENDBRANCH   7   9
ENDBRANCH   1   7
BRANCH   3  11
HETATM   11  N   UNL     1      59.839   6.421   2.606  1.00  0.00    -0.399 N 
HETATM   12  H   UNL     1      60.330   5.640   2.950  1.00  0.00     0.156 HD
HETATM   13  H   UNL     1      58.873   6.355   2.426  1.00  0.00     0.156 HD
ENDBRANCH   3  11
TORSDOF 3
ENDMDL
