MODEL 1
REMARK VINA RESULT:      -4.2      0.000      0.000
REMARK  0 active torsions:
REMARK  status: ('A' for Active; 'I' for Inactive)
ROOT
HETATM    1  N   UNL     1      61.577  11.324   2.262  1.00  0.00    -0.266 N 
ATOM      2  HN  UNL     1      61.183  11.844   1.478  1.00  0.00     0.194 HD
HETATM    3  O   UNL     1      61.902  11.819   3.512  1.00  0.00    -0.243 OA
HETATM    4  C   UNL     1      62.414   9.652   3.554  1.00  0.00     0.060 A 
HETATM    5  C   UNL     1      62.401  10.816   4.282  1.00  0.00     0.074 A 
HETATM    6  C   UNL     1      61.887  10.023   2.295  1.00  0.00     0.031 A 
HETATM    7  C   UNL     1      62.798  11.173   5.655  1.00  0.00     0.079 C 
HETATM    8  C   UNL     1      61.665   9.168   1.108  1.00  0.00     0.070 C 
ENDROOT
TORSDOF 0
ENDMDL
MODEL 2
REMARK VINA RESULT:      -3.7      1.799      2.814
REMARK  0 active torsions:
REMARK  status: ('A' for Active; 'I' for Inactive)
ROOT
HETATM    1  N   UNL     1      62.591  10.903   5.229  1.00  0.00    -0.266 N 
ATOM      2  HN  UNL     1      62.814  11.121   6.200  1.00  0.00     0.194 HD
HETATM    3  O   UNL     1      62.191  11.789   4.245  1.00  0.00    -0.243 OA
HETATM    4  C   UNL     1      62.251   9.782   3.281  1.00  0.00     0.060 A 
HETATM    5  C   UNL     1      61.990  11.115   3.082  1.00  0.00     0.074 A 
HETATM    6  C   UNL     1      62.625   9.700   4.642  1.00  0.00     0.031 A 
HETATM    7  C   UNL     1      61.559  11.915   1.922  1.00  0.00     0.079 C 
HETATM    8  C   UNL     1      63.020   8.500   5.412  1.00  0.00     0.070 C 
ENDROOT
TORSDOF 0
ENDMDL
MODEL 3
REMARK VINA RESULT:      -3.5      2.093      2.415
REMARK  0 active torsions:
REMARK  status: ('A' for Active; 'I' for Inactive)
ROOT
HETATM    1  N   UNL     1      62.536  11.357   4.863  1.00  0.00    -0.266 N 
ATOM      2  HN  UNL     1      62.491  12.349   5.098  1.00  0.00     0.194 HD
HETATM    3  O   UNL     1      62.939  10.321   5.686  1.00  0.00    -0.243 OA
HETATM    4  C   UNL     1      62.406   9.388   3.736  1.00  0.00     0.060 A 
HETATM    5  C   UNL     1      62.859   9.145   5.009  1.00  0.00     0.074 A 
HETATM    6  C   UNL     1      62.217  10.788   3.694  1.00  0.00     0.031 A 
HETATM    7  C   UNL     1      63.253   7.932   5.745  1.00  0.00     0.079 C 
HETATM    8  C   UNL     1      61.735  11.613   2.564  1.00  0.00     0.070 C 
ENDROOT
TORSDOF 0
ENDMDL
MODEL 4
REMARK VINA RESULT:      -3.5      3.158      3.533
REMARK  0 active torsions:
REMARK  status: ('A' for Active; 'I' for Inactive)
ROOT
HETATM    1  N   UNL     1      63.548  10.292   5.521  1.00  0.00    -0.266 N 
ATOM      2  HN  UNL     1      63.168  11.146   5.930  1.00  0.00     0.194 HD
HETATM    3  O   UNL     1      64.719   9.646   5.875  1.00  0.00    -0.243 OA
HETATM    4  C   UNL     1      63.825   8.445   4.226  1.00  0.00     0.060 A 
HETATM    5  C   UNL     1      64.880   8.541   5.099  1.00  0.00     0.074 A 
HETATM    6  C   UNL     1      63.017   9.564   4.531  1.00  0.00     0.031 A 
HETATM    7  C   UNL     1      66.085   7.730   5.348  1.00  0.00     0.079 C 
HETATM    8  C   UNL     1      61.739   9.969   3.904  1.00  0.00     0.070 C 
ENDROOT
TORSDOF 0
ENDMDL
MODEL 5
REMARK VINA RESULT:      -3.5      5.784      6.641
REMARK  0 active torsions:
REMARK  status: ('A' for Active; 'I' for Inactive)
ROOT
HETATM    1  N   UNL     1      66.950   8.473   7.319  1.00  0.00    -0.266 N 
ATOM      2  HN  UNL     1      67.645   9.010   7.838  1.00  0.00     0.194 HD
HETATM    3  O   UNL     1      66.159   8.918   6.275  1.00  0.00    -0.243 OA
HETATM    4  C   UNL     1      65.609   6.785   6.599  1.00  0.00     0.060 A 
HETATM    5  C   UNL     1      65.360   7.906   5.846  1.00  0.00     0.074 A 
HETATM    6  C   UNL     1      66.614   7.191   7.507  1.00  0.00     0.031 A 
HETATM    7  C   UNL     1      64.449   8.211   4.729  1.00  0.00     0.079 C 
HETATM    8  C   UNL     1      67.274   6.389   8.561  1.00  0.00     0.070 C 
ENDROOT
TORSDOF 0
ENDMDL
MODEL 6
REMARK VINA RESULT:      -3.3      3.193      3.586
REMARK  0 active torsions:
REMARK  status: ('A' for Active; 'I' for Inactive)
ROOT
HETATM    1  N   UNL     1      65.046   8.744   5.614  1.00  0.00    -0.266 N 
ATOM      2  HN  UNL     1      65.864   8.425   6.134  1.00  0.00     0.194 HD
HETATM    3  O   UNL     1      64.357   9.931   5.788  1.00  0.00    -0.243 OA
HETATM    4  C   UNL     1      63.319   8.850   4.140  1.00  0.00     0.060 A 
HETATM    5  C   UNL     1      63.326   9.991   4.904  1.00  0.00     0.074 A 
HETATM    6  C   UNL     1      64.417   8.101   4.623  1.00  0.00     0.031 A 
HETATM    7  C   UNL     1      62.485  11.199   4.952  1.00  0.00     0.079 C 
HETATM    8  C   UNL     1      64.894   6.777   4.166  1.00  0.00     0.070 C 
ENDROOT
TORSDOF 0
ENDMDL
MODEL 7
REMARK VINA RESULT:      -3.2      1.915      3.532
REMARK  0 active torsions:
REMARK  status: ('A' for Active; 'I' for Inactive)
ROOT
HETATM    1  N   UNL     1      63.280   9.113   4.332  1.00  0.00    -0.266 N 
ATOM      2  HN  UNL     1      63.869   8.680   5.044  1.00  0.00     0.194 HD
HETATM    3  O   UNL     1      62.953   8.596   3.092  1.00  0.00    -0.243 OA
HETATM    4  C   UNL     1      61.936  10.573   3.225  1.00  0.00     0.060 A 
HETATM    5  C   UNL     1      62.148   9.471   2.433  1.00  0.00     0.074 A 
HETATM    6  C   UNL     1      62.666  10.300   4.405  1.00  0.00     0.031 A 
HETATM    7  C   UNL     1      61.700   9.072   1.088  1.00  0.00     0.079 C 
HETATM    8  C   UNL     1      62.798  11.142   5.614  1.00  0.00     0.070 C 
ENDROOT
TORSDOF 0
ENDMDL
MODEL 8
REMARK VINA RESULT:      -3.2      6.088      6.537
REMARK  0 active torsions:
REMARK  status: ('A' for Active; 'I' for Inactive)
ROOT
HETATM    1  N   UNL     1      64.573   7.245   6.915  1.00  0.00    -0.266 N 
ATOM      2  HN  UNL     1      63.567   7.283   6.750  1.00  0.00     0.194 HD
HETATM    3  O   UNL     1      65.217   6.770   8.044  1.00  0.00    -0.243 OA
HETATM    4  C   UNL     1      66.823   7.438   6.653  1.00  0.00     0.060 A 
HETATM    5  C   UNL     1      66.561   6.886   7.882  1.00  0.00     0.074 A 
HETATM    6  C   UNL     1      65.544   7.644   6.085  1.00  0.00     0.031 A 
HETATM    7  C   UNL     1      67.403   6.421   8.998  1.00  0.00     0.079 C 
HETATM    8  C   UNL     1      65.212   8.214   4.760  1.00  0.00     0.070 C 
ENDROOT
TORSDOF 0
ENDMDL
MODEL 9
REMARK VINA RESULT:      -3.2      4.901      5.247
REMARK  0 active torsions:
REMARK  status: ('A' for Active; 'I' for Inactive)
ROOT
HETATM    1  N   UNL     1      63.572   7.684   6.386  1.00  0.00    -0.266 N 
ATOM      2  HN  UNL     1      62.565   7.713   6.552  1.00  0.00     0.194 HD
HETATM    3  O   UNL     1      64.542   7.174   7.229  1.00  0.00    -0.243 OA
HETATM    4  C   UNL     1      65.620   7.923   5.430  1.00  0.00     0.060 A 
HETATM    5  C   UNL     1      65.765   7.317   6.654  1.00  0.00     0.074 A 
HETATM    6  C   UNL     1      64.227   8.131   5.308  1.00  0.00     0.031 A 
HETATM    7  C   UNL     1      66.919   6.820   7.422  1.00  0.00     0.079 C 
HETATM    8  C   UNL     1      63.488   8.749   4.184  1.00  0.00     0.070 C 
ENDROOT
TORSDOF 0
ENDMDL
