MODEL 1
REMARK VINA RESULT:      -4.5      0.000      0.000
REMARK  2 active torsions:
REMARK  status: ('A' for Active; 'I' for Inactive)
REMARK    1  A    between atoms: C_1  and  N_2 
REMARK    2  A    between atoms: N_2  and  C_4 
ROOT
HETATM    1  N   UNL     1      62.948   7.839   4.286  1.00  0.00    -0.329 N 
HETATM    2  C   UNL     1      62.470   6.540   3.792  1.00  0.00     0.159 C 
ENDROOT
BRANCH   1   3
HETATM    3  C   UNL     1      63.831   7.863   5.371  1.00  0.00     0.171 C 
HETATM    4  S   UNL     1      65.492   8.075   5.314  1.00  0.00    -0.041 SA
HETATM    5  N   UNL     1      63.296   7.628   6.601  1.00  0.00    -0.376 N 
HETATM    6  H   UNL     1      62.325   7.495   6.698  1.00  0.00     0.158 HD
HETATM    7  H   UNL     1      63.880   7.590   7.393  1.00  0.00     0.158 HD
ENDBRANCH   1   3
BRANCH   1   8
HETATM    8  C   UNL     1      62.527   9.013   3.564  1.00  0.00     0.036 A 
HETATM    9  C   UNL     1      62.318  10.233   4.230  1.00  0.00     0.029 A 
HETATM   10  C   UNL     1      61.924  11.382   3.538  1.00  0.00     0.002 A 
HETATM   11  C   UNL     1      61.757  11.336   2.163  1.00  0.00     0.000 A 
HETATM   12  C   UNL     1      61.980  10.150   1.475  1.00  0.00     0.002 A 
HETATM   13  C   UNL     1      62.349   8.995   2.174  1.00  0.00     0.029 A 
ENDBRANCH   1   8
TORSDOF 2
ENDMDL
MODEL 2
REMARK VINA RESULT:      -4.5      1.364      2.132
REMARK  2 active torsions:
REMARK  status: ('A' for Active; 'I' for Inactive)
REMARK    1  A    between atoms: C_1  and  N_2 
REMARK    2  A    between atoms: N_2  and  C_4 
ROOT
HETATM    1  N   UNL     1      63.766   8.090   5.402  1.00  0.00    -0.329 N 
HETATM    2  C   UNL     1      62.890   7.247   6.229  1.00  0.00     0.159 C 
ENDROOT
BRANCH   1   3
HETATM    3  C   UNL     1      65.137   7.817   5.381  1.00  0.00     0.171 C 
HETATM    4  S   UNL     1      65.943   6.782   4.339  1.00  0.00    -0.041 SA
HETATM    5  N   UNL     1      65.894   8.407   6.348  1.00  0.00    -0.376 N 
HETATM    6  H   UNL     1      65.476   9.025   6.991  1.00  0.00     0.158 HD
HETATM    7  H   UNL     1      66.858   8.214   6.405  1.00  0.00     0.158 HD
ENDBRANCH   1   3
BRANCH   1   8
HETATM    8  C   UNL     1      63.134   9.107   4.600  1.00  0.00     0.036 A 
HETATM    9  C   UNL     1      62.740   8.841   3.277  1.00  0.00     0.029 A 
HETATM   10  C   UNL     1      62.113   9.814   2.494  1.00  0.00     0.002 A 
HETATM   11  C   UNL     1      61.845  11.064   3.031  1.00  0.00     0.000 A 
HETATM   12  C   UNL     1      62.201  11.347   4.344  1.00  0.00     0.002 A 
HETATM   13  C   UNL     1      62.852  10.379   5.117  1.00  0.00     0.029 A 
ENDBRANCH   1   8
TORSDOF 2
ENDMDL
MODEL 3
REMARK VINA RESULT:      -4.2      1.128      2.370
REMARK  2 active torsions:
REMARK  status: ('A' for Active; 'I' for Inactive)
REMARK    1  A    between atoms: C_1  and  N_2 
REMARK    2  A    between atoms: N_2  and  C_4 
ROOT
HETATM    1  N   UNL     1      63.306   9.269   4.726  1.00  0.00    -0.329 N 
HETATM    2  C   UNL     1      62.936  10.557   5.331  1.00  0.00     0.159 C 
ENDROOT
BRANCH   1   3
HETATM    3  C   UNL     1      64.027   8.348   5.493  1.00  0.00     0.171 C 
HETATM    4  S   UNL     1      65.660   7.993   5.370  1.00  0.00    -0.041 SA
HETATM    5  N   UNL     1      63.318   7.615   6.396  1.00  0.00    -0.376 N 
HETATM    6  H   UNL     1      62.354   7.779   6.514  1.00  0.00     0.158 HD
HETATM    7  H   UNL     1      63.769   6.923   6.931  1.00  0.00     0.158 HD
ENDBRANCH   1   3
BRANCH   1   8
HETATM    8  C   UNL     1      62.831   9.009   3.391  1.00  0.00     0.036 A 
HETATM    9  C   UNL     1      63.038   7.759   2.783  1.00  0.00     0.029 A 
HETATM   10  C   UNL     1      62.569   7.490   1.493  1.00  0.00     0.002 A 
HETATM   11  C   UNL     1      61.862   8.459   0.800  1.00  0.00     0.000 A 
HETATM   12  C   UNL     1      61.622   9.696   1.386  1.00  0.00     0.002 A 
HETATM   13  C   UNL     1      62.115   9.972   2.666  1.00  0.00     0.029 A 
ENDBRANCH   1   8
TORSDOF 2
ENDMDL
MODEL 4
REMARK VINA RESULT:      -3.9      2.269      4.610
REMARK  2 active torsions:
REMARK  status: ('A' for Active; 'I' for Inactive)
REMARK    1  A    between atoms: C_1  and  N_2 
REMARK    2  A    between atoms: N_2  and  C_4 
ROOT
HETATM    1  N   UNL     1      62.715   9.919   4.512  1.00  0.00    -0.329 N 
HETATM    2  C   UNL     1      62.686  11.146   5.321  1.00  0.00     0.159 C 
ENDROOT
BRANCH   1   3
HETATM    3  C   UNL     1      62.176   9.950   3.222  1.00  0.00     0.171 C 
HETATM    4  S   UNL     1      62.240   8.732   2.073  1.00  0.00    -0.041 SA
HETATM    5  N   UNL     1      61.588  11.115   2.832  1.00  0.00    -0.376 N 
HETATM    6  H   UNL     1      61.520  11.867   3.464  1.00  0.00     0.158 HD
HETATM    7  H   UNL     1      61.231  11.205   1.919  1.00  0.00     0.158 HD
ENDBRANCH   1   3
BRANCH   1   8
HETATM    8  C   UNL     1      63.372   8.771   5.084  1.00  0.00     0.036 A 
HETATM    9  C   UNL     1      64.771   8.644   5.039  1.00  0.00     0.029 A 
HETATM   10  C   UNL     1      65.422   7.543   5.602  1.00  0.00     0.002 A 
HETATM   11  C   UNL     1      64.685   6.561   6.244  1.00  0.00     0.000 A 
HETATM   12  C   UNL     1      63.302   6.671   6.326  1.00  0.00     0.002 A 
HETATM   13  C   UNL     1      62.651   7.762   5.738  1.00  0.00     0.029 A 
ENDBRANCH   1   8
TORSDOF 2
ENDMDL
MODEL 5
REMARK VINA RESULT:      -3.8      3.386      4.553
REMARK  2 active torsions:
REMARK  status: ('A' for Active; 'I' for Inactive)
REMARK    1  A    between atoms: C_1  and  N_2 
REMARK    2  A    between atoms: N_2  and  C_4 
ROOT
HETATM    1  N   UNL     1      66.664   6.736   6.363  1.00  0.00    -0.329 N 
HETATM    2  C   UNL     1      67.702   6.754   5.322  1.00  0.00     0.159 C 
ENDROOT
BRANCH   1   3
HETATM    3  C   UNL     1      67.002   6.283   7.643  1.00  0.00     0.171 C 
HETATM    4  S   UNL     1      66.993   4.698   8.186  1.00  0.00    -0.041 SA
HETATM    5  N   UNL     1      67.314   7.234   8.567  1.00  0.00    -0.376 N 
HETATM    6  H   UNL     1      67.335   8.184   8.307  1.00  0.00     0.158 HD
HETATM    7  H   UNL     1      67.517   6.972   9.494  1.00  0.00     0.158 HD
ENDBRANCH   1   3
BRANCH   1   8
HETATM    8  C   UNL     1      65.370   7.263   6.011  1.00  0.00     0.036 A 
HETATM    9  C   UNL     1      64.195   6.713   6.553  1.00  0.00     0.029 A 
HETATM   10  C   UNL     1      62.935   7.224   6.230  1.00  0.00     0.002 A 
HETATM   11  C   UNL     1      62.830   8.312   5.378  1.00  0.00     0.000 A 
HETATM   12  C   UNL     1      63.975   8.892   4.847  1.00  0.00     0.002 A 
HETATM   13  C   UNL     1      65.234   8.361   5.151  1.00  0.00     0.029 A 
ENDBRANCH   1   8
TORSDOF 2
ENDMDL
MODEL 6
REMARK VINA RESULT:      -3.7      2.750      4.966
REMARK  2 active torsions:
REMARK  status: ('A' for Active; 'I' for Inactive)
REMARK    1  A    between atoms: C_1  and  N_2 
REMARK    2  A    between atoms: N_2  and  C_4 
ROOT
HETATM    1  N   UNL     1      63.645   7.987   5.631  1.00  0.00    -0.329 N 
HETATM    2  C   UNL     1      62.649   7.070   6.205  1.00  0.00     0.159 C 
ENDROOT
BRANCH   1   3
HETATM    3  C   UNL     1      63.208   9.197   5.081  1.00  0.00     0.171 C 
HETATM    4  S   UNL     1      62.423   9.414   3.617  1.00  0.00    -0.041 SA
HETATM    5  N   UNL     1      63.505  10.328   5.779  1.00  0.00    -0.376 N 
HETATM    6  H   UNL     1      63.966  10.265   6.647  1.00  0.00     0.158 HD
HETATM    7  H   UNL     1      63.258  11.210   5.415  1.00  0.00     0.158 HD
ENDBRANCH   1   3
BRANCH   1   8
HETATM    8  C   UNL     1      65.030   7.605   5.741  1.00  0.00     0.036 A 
HETATM    9  C   UNL     1      65.499   6.912   6.870  1.00  0.00     0.029 A 
HETATM   10  C   UNL     1      66.837   6.523   6.983  1.00  0.00     0.002 A 
HETATM   11  C   UNL     1      67.724   6.800   5.955  1.00  0.00     0.000 A 
HETATM   12  C   UNL     1      67.283   7.462   4.816  1.00  0.00     0.002 A 
HETATM   13  C   UNL     1      65.950   7.873   4.717  1.00  0.00     0.029 A 
ENDBRANCH   1   8
TORSDOF 2
ENDMDL
MODEL 7
REMARK VINA RESULT:      -3.7      1.976      2.674
REMARK  2 active torsions:
REMARK  status: ('A' for Active; 'I' for Inactive)
REMARK    1  A    between atoms: C_1  and  N_2 
REMARK    2  A    between atoms: N_2  and  C_4 
ROOT
HETATM    1  N   UNL     1      63.261   7.218   3.498  1.00  0.00    -0.329 N 
HETATM    2  C   UNL     1      64.653   7.072   3.948  1.00  0.00     0.159 C 
ENDROOT
BRANCH   1   3
HETATM    3  C   UNL     1      62.460   6.075   3.407  1.00  0.00     0.171 C 
HETATM    4  S   UNL     1      62.798   4.672   2.556  1.00  0.00    -0.041 SA
HETATM    5  N   UNL     1      61.247   6.127   4.025  1.00  0.00    -0.376 N 
HETATM    6  H   UNL     1      60.991   6.927   4.540  1.00  0.00     0.158 HD
HETATM    7  H   UNL     1      60.626   5.366   3.955  1.00  0.00     0.158 HD
ENDBRANCH   1   3
BRANCH   1   8
HETATM    8  C   UNL     1      62.789   8.556   3.248  1.00  0.00     0.036 A 
HETATM    9  C   UNL     1      62.369   8.944   1.964  1.00  0.00     0.029 A 
HETATM   10  C   UNL     1      61.895  10.235   1.712  1.00  0.00     0.002 A 
HETATM   11  C   UNL     1      61.808  11.152   2.747  1.00  0.00     0.000 A 
HETATM   12  C   UNL     1      62.192  10.788   4.032  1.00  0.00     0.002 A 
HETATM   13  C   UNL     1      62.691   9.504   4.276  1.00  0.00     0.029 A 
ENDBRANCH   1   8
TORSDOF 2
ENDMDL
MODEL 8
REMARK VINA RESULT:      -3.6      2.969      3.902
REMARK  2 active torsions:
REMARK  status: ('A' for Active; 'I' for Inactive)
REMARK    1  A    between atoms: C_1  and  N_2 
REMARK    2  A    between atoms: N_2  and  C_4 
ROOT
HETATM    1  N   UNL     1      61.585   7.854   2.521  1.00  0.00    -0.329 N 
HETATM    2  C   UNL     1      61.285   6.501   3.011  1.00  0.00     0.159 C 
ENDROOT
BRANCH   1   3
HETATM    3  C   UNL     1      61.198   8.201   1.223  1.00  0.00     0.171 C 
HETATM    4  S   UNL     1      59.678   8.019   0.541  1.00  0.00    -0.041 SA
HETATM    5  N   UNL     1      62.172   8.683   0.401  1.00  0.00    -0.376 N 
HETATM    6  H   UNL     1      63.086   8.812   0.745  1.00  0.00     0.158 HD
HETATM    7  H   UNL     1      61.962   8.902  -0.536  1.00  0.00     0.158 HD
ENDBRANCH   1   3
BRANCH   1   8
HETATM    8  C   UNL     1      62.201   8.768   3.450  1.00  0.00     0.036 A 
HETATM    9  C   UNL     1      61.708  10.074   3.611  1.00  0.00     0.029 A 
HETATM   10  C   UNL     1      62.288  10.965   4.519  1.00  0.00     0.002 A 
HETATM   11  C   UNL     1      63.355  10.555   5.301  1.00  0.00     0.000 A 
HETATM   12  C   UNL     1      63.848   9.261   5.182  1.00  0.00     0.002 A 
HETATM   13  C   UNL     1      63.283   8.380   4.253  1.00  0.00     0.029 A 
ENDBRANCH   1   8
TORSDOF 2
ENDMDL
MODEL 9
REMARK VINA RESULT:      -3.6     12.726     14.059
REMARK  2 active torsions:
REMARK  status: ('A' for Active; 'I' for Inactive)
REMARK    1  A    between atoms: C_1  and  N_2 
REMARK    2  A    between atoms: N_2  and  C_4 
ROOT
HETATM    1  N   UNL     1      55.342   1.861  13.115  1.00  0.00    -0.329 N 
HETATM    2  C   UNL     1      54.665   1.643  11.828  1.00  0.00     0.159 C 
ENDROOT
BRANCH   1   3
HETATM    3  C   UNL     1      54.567   2.139  14.245  1.00  0.00     0.171 C 
HETATM    4  S   UNL     1      53.421   1.142  14.952  1.00  0.00    -0.041 SA
HETATM    5  N   UNL     1      54.712   3.375  14.798  1.00  0.00    -0.376 N 
HETATM    6  H   UNL     1      55.370   4.006  14.426  1.00  0.00     0.158 HD
HETATM    7  H   UNL     1      54.158   3.638  15.569  1.00  0.00     0.158 HD
ENDBRANCH   1   3
BRANCH   1   8
HETATM    8  C   UNL     1      56.774   1.697  13.140  1.00  0.00     0.036 A 
HETATM    9  C   UNL     1      57.588   2.318  12.177  1.00  0.00     0.029 A 
HETATM   10  C   UNL     1      58.979   2.179  12.199  1.00  0.00     0.002 A 
HETATM   11  C   UNL     1      59.581   1.436  13.201  1.00  0.00     0.000 A 
HETATM   12  C   UNL     1      58.804   0.830  14.181  1.00  0.00     0.002 A 
HETATM   13  C   UNL     1      57.410   0.950  14.141  1.00  0.00     0.029 A 
ENDBRANCH   1   8
TORSDOF 2
ENDMDL
