MODEL 1
REMARK VINA RESULT:      -5.1      0.000      0.000
REMARK  0 active torsions:
REMARK  status: ('A' for Active; 'I' for Inactive)
ROOT
HETATM    1  N   UNL     1      63.718   7.837   6.094  1.00  0.00    -0.191 NA
HETATM    2  C   UNL     1      62.842   9.200   4.058  1.00  0.00     0.056 A 
HETATM    3  C   UNL     1      63.336   8.450   5.181  1.00  0.00     0.100 C 
HETATM    4  C   UNL     1      62.723   8.582   2.792  1.00  0.00    -0.041 A 
HETATM    5  C   UNL     1      62.459  10.550   4.223  1.00  0.00    -0.041 A 
HETATM    6  C   UNL     1      61.775  10.633   1.892  1.00  0.00     0.001 A 
HETATM    7  C   UNL     1      62.204   9.320   1.715  1.00  0.00     0.008 A 
HETATM    8  C   UNL     1      61.899  11.242   3.136  1.00  0.00     0.008 A 
HETATM    9  C   UNL     1      62.641  11.313   5.510  1.00  0.00     0.050 C 
HETATM   10  C   UNL     1      63.152   7.164   2.517  1.00  0.00     0.050 C 
ENDROOT
TORSDOF 0
ENDMDL
MODEL 2
REMARK VINA RESULT:      -5.0      1.308      2.297
REMARK  0 active torsions:
REMARK  status: ('A' for Active; 'I' for Inactive)
ROOT
HETATM    1  N   UNL     1      62.945  11.004   5.829  1.00  0.00    -0.191 NA
HETATM    2  C   UNL     1      62.652   9.627   3.641  1.00  0.00     0.056 A 
HETATM    3  C   UNL     1      62.823  10.391   4.847  1.00  0.00     0.100 C 
HETATM    4  C   UNL     1      63.036   8.267   3.606  1.00  0.00    -0.041 A 
HETATM    5  C   UNL     1      62.082  10.229   2.497  1.00  0.00    -0.041 A 
HETATM    6  C   UNL     1      62.215   8.106   1.322  1.00  0.00     0.001 A 
HETATM    7  C   UNL     1      62.827   7.526   2.430  1.00  0.00     0.008 A 
HETATM    8  C   UNL     1      61.844   9.446   1.356  1.00  0.00     0.008 A 
HETATM    9  C   UNL     1      61.734  11.694   2.417  1.00  0.00     0.050 C 
HETATM   10  C   UNL     1      63.692   7.559   4.762  1.00  0.00     0.050 C 
ENDROOT
TORSDOF 0
ENDMDL
MODEL 3
REMARK VINA RESULT:      -5.0      0.143      2.766
REMARK  0 active torsions:
REMARK  status: ('A' for Active; 'I' for Inactive)
ROOT
HETATM    1  N   UNL     1      63.906   7.780   5.977  1.00  0.00    -0.191 NA
HETATM    2  C   UNL     1      62.835   9.141   4.036  1.00  0.00     0.056 A 
HETATM    3  C   UNL     1      63.418   8.386   5.112  1.00  0.00     0.100 C 
HETATM    4  C   UNL     1      62.496  10.500   4.228  1.00  0.00    -0.041 A 
HETATM    5  C   UNL     1      62.619   8.531   2.780  1.00  0.00    -0.041 A 
HETATM    6  C   UNL     1      61.801  10.645   1.903  1.00  0.00     0.001 A 
HETATM    7  C   UNL     1      61.962  11.232   3.154  1.00  0.00     0.008 A 
HETATM    8  C   UNL     1      62.129   9.306   1.716  1.00  0.00     0.008 A 
HETATM    9  C   UNL     1      62.862   7.067   2.516  1.00  0.00     0.050 C 
HETATM   10  C   UNL     1      62.649  11.215   5.546  1.00  0.00     0.050 C 
ENDROOT
TORSDOF 0
ENDMDL
MODEL 4
REMARK VINA RESULT:      -5.0      1.302      2.910
REMARK  0 active torsions:
REMARK  status: ('A' for Active; 'I' for Inactive)
ROOT
HETATM    1  N   UNL     1      63.024  10.996   5.828  1.00  0.00    -0.191 NA
HETATM    2  C   UNL     1      62.602   9.605   3.670  1.00  0.00     0.056 A 
HETATM    3  C   UNL     1      62.826  10.372   4.866  1.00  0.00     0.100 C 
HETATM    4  C   UNL     1      62.111  10.237   2.506  1.00  0.00    -0.041 A 
HETATM    5  C   UNL     1      62.892   8.222   3.653  1.00  0.00    -0.041 A 
HETATM    6  C   UNL     1      62.272   8.129   1.305  1.00  0.00     0.001 A 
HETATM    7  C   UNL     1      61.934   9.479   1.336  1.00  0.00     0.008 A 
HETATM    8  C   UNL     1      62.749   7.506   2.453  1.00  0.00     0.008 A 
HETATM    9  C   UNL     1      63.327   7.450   4.872  1.00  0.00     0.050 C 
HETATM   10  C   UNL     1      61.732  11.695   2.450  1.00  0.00     0.050 C 
ENDROOT
TORSDOF 0
ENDMDL
MODEL 5
REMARK VINA RESULT:      -4.8      1.278      2.974
REMARK  0 active torsions:
REMARK  status: ('A' for Active; 'I' for Inactive)
ROOT
HETATM    1  N   UNL     1      63.677   6.226   2.771  1.00  0.00    -0.191 NA
HETATM    2  C   UNL     1      62.738   8.648   2.923  1.00  0.00     0.056 A 
HETATM    3  C   UNL     1      63.248   7.306   2.841  1.00  0.00     0.100 C 
HETATM    4  C   UNL     1      62.720   9.322   4.164  1.00  0.00    -0.041 A 
HETATM    5  C   UNL     1      62.273   9.300   1.759  1.00  0.00    -0.041 A 
HETATM    6  C   UNL     1      61.847  11.306   3.062  1.00  0.00     0.001 A 
HETATM    7  C   UNL     1      62.253  10.647   4.219  1.00  0.00     0.008 A 
HETATM    8  C   UNL     1      61.859  10.639   1.842  1.00  0.00     0.008 A 
HETATM    9  C   UNL     1      62.168   8.624   0.415  1.00  0.00     0.050 C 
HETATM   10  C   UNL     1      63.152   8.687   5.461  1.00  0.00     0.050 C 
ENDROOT
TORSDOF 0
ENDMDL
MODEL 6
REMARK VINA RESULT:      -4.6      2.122      3.191
REMARK  0 active torsions:
REMARK  status: ('A' for Active; 'I' for Inactive)
ROOT
HETATM    1  N   UNL     1      61.701  12.002   2.026  1.00  0.00    -0.191 NA
HETATM    2  C   UNL     1      62.413   9.655   2.893  1.00  0.00     0.056 A 
HETATM    3  C   UNL     1      62.010  10.950   2.417  1.00  0.00     0.100 C 
HETATM    4  C   UNL     1      62.382   8.541   2.024  1.00  0.00    -0.041 A 
HETATM    5  C   UNL     1      62.857   9.498   4.225  1.00  0.00    -0.041 A 
HETATM    6  C   UNL     1      63.304   7.149   3.791  1.00  0.00     0.001 A 
HETATM    7  C   UNL     1      62.815   7.290   2.496  1.00  0.00     0.008 A 
HETATM    8  C   UNL     1      63.327   8.244   4.648  1.00  0.00     0.008 A 
HETATM    9  C   UNL     1      62.832  10.608   5.245  1.00  0.00     0.050 C 
HETATM   10  C   UNL     1      61.879   8.609   0.605  1.00  0.00     0.050 C 
ENDROOT
TORSDOF 0
ENDMDL
MODEL 7
REMARK VINA RESULT:      -4.6      1.470      2.573
REMARK  0 active torsions:
REMARK  status: ('A' for Active; 'I' for Inactive)
ROOT
HETATM    1  N   UNL     1      63.495   6.263   2.441  1.00  0.00    -0.191 NA
HETATM    2  C   UNL     1      62.960   8.638   3.357  1.00  0.00     0.056 A 
HETATM    3  C   UNL     1      63.265   7.329   2.847  1.00  0.00     0.100 C 
HETATM    4  C   UNL     1      62.233   9.554   2.565  1.00  0.00    -0.041 A 
HETATM    5  C   UNL     1      63.371   9.003   4.659  1.00  0.00    -0.041 A 
HETATM    6  C   UNL     1      62.270  11.153   4.396  1.00  0.00     0.001 A 
HETATM    7  C   UNL     1      61.912  10.816   3.094  1.00  0.00     0.008 A 
HETATM    8  C   UNL     1      62.991  10.253   5.174  1.00  0.00     0.008 A 
HETATM    9  C   UNL     1      64.230   8.126   5.535  1.00  0.00     0.050 C 
HETATM   10  C   UNL     1      61.797   9.266   1.151  1.00  0.00     0.050 C 
ENDROOT
TORSDOF 0
ENDMDL
MODEL 8
REMARK VINA RESULT:      -4.5      1.335      1.893
REMARK  0 active torsions:
REMARK  status: ('A' for Active; 'I' for Inactive)
ROOT
HETATM    1  N   UNL     1      62.649   6.298   3.398  1.00  0.00    -0.191 NA
HETATM    2  C   UNL     1      62.329   8.851   3.015  1.00  0.00     0.056 A 
HETATM    3  C   UNL     1      62.516   7.441   3.225  1.00  0.00     0.100 C 
HETATM    4  C   UNL     1      62.085   9.346   1.713  1.00  0.00    -0.041 A 
HETATM    5  C   UNL     1      62.369   9.741   4.111  1.00  0.00    -0.041 A 
HETATM    6  C   UNL     1      61.853  11.590   2.620  1.00  0.00     0.001 A 
HETATM    7  C   UNL     1      61.868  10.722   1.532  1.00  0.00     0.008 A 
HETATM    8  C   UNL     1      62.100  11.103   3.900  1.00  0.00     0.008 A 
HETATM    9  C   UNL     1      62.716   9.314   5.515  1.00  0.00     0.050 C 
HETATM   10  C   UNL     1      62.072   8.475   0.483  1.00  0.00     0.050 C 
ENDROOT
TORSDOF 0
ENDMDL
MODEL 9
REMARK VINA RESULT:      -3.9      1.970      3.071
REMARK  0 active torsions:
REMARK  status: ('A' for Active; 'I' for Inactive)
ROOT
HETATM    1  N   UNL     1      61.999   7.684   0.794  1.00  0.00    -0.191 NA
HETATM    2  C   UNL     1      62.382   8.998   3.006  1.00  0.00     0.056 A 
HETATM    3  C   UNL     1      62.161   8.269   1.787  1.00  0.00     0.100 C 
HETATM    4  C   UNL     1      62.963   8.352   4.120  1.00  0.00    -0.041 A 
HETATM    5  C   UNL     1      62.035  10.366   3.085  1.00  0.00    -0.041 A 
HETATM    6  C   UNL     1      62.915  10.450   5.349  1.00  0.00     0.001 A 
HETATM    7  C   UNL     1      63.206   9.090   5.291  1.00  0.00     0.008 A 
HETATM    8  C   UNL     1      62.336  11.083   4.254  1.00  0.00     0.008 A 
HETATM    9  C   UNL     1      61.325  11.107   1.981  1.00  0.00     0.050 C 
HETATM   10  C   UNL     1      63.319   6.888   4.139  1.00  0.00     0.050 C 
ENDROOT
TORSDOF 0
ENDMDL
