MODEL 1
REMARK VINA RESULT:      -4.8      0.000      0.000
REMARK  3 active torsions:
REMARK  status: ('A' for Active; 'I' for Inactive)
REMARK    1  A    between atoms: C_1  and  C_2 
REMARK    2  A    between atoms: C_8  and  C_10 
REMARK    3  A    between atoms: C_10  and  C_11 
ROOT
HETATM    1  C   UNL     1      65.103   8.010   5.096  1.00  0.00     0.009 A 
HETATM    2  C   UNL     1      64.752   7.225   3.995  1.00  0.00     0.015 A 
HETATM    3  C   UNL     1      64.348   9.148   5.399  1.00  0.00     0.015 A 
HETATM    4  C   UNL     1      63.223   9.471   4.637  1.00  0.00     0.008 A 
HETATM    5  C   UNL     1      63.626   7.552   3.231  1.00  0.00     0.008 A 
HETATM    6  C   UNL     1      62.838   8.663   3.557  1.00  0.00    -0.058 A 
ENDROOT
BRANCH   1   7
HETATM    7  C   UNL     1      66.264   7.687   5.974  1.00  0.00     0.155 C 
HETATM    8  O   UNL     1      66.104   7.625   7.191  1.00  0.00    -0.293 OA
HETATM    9  C   UNL     1      67.604   7.376   5.356  1.00  0.00     0.096 C 
ENDBRANCH   1   7
BRANCH   6  10
HETATM   10  C   UNL     1      61.608   9.006   2.754  1.00  0.00     0.038 C 
BRANCH  10  11
HETATM   11  C   UNL     1      61.859   9.951   1.571  1.00  0.00     0.000 C 
HETATM   12  C   UNL     1      61.811  11.424   1.950  1.00  0.00     0.005 C 
ENDBRANCH  10  11
ENDBRANCH   6  10
TORSDOF 3
ENDMDL
MODEL 2
REMARK VINA RESULT:      -4.7      2.276      4.841
REMARK  3 active torsions:
REMARK  status: ('A' for Active; 'I' for Inactive)
REMARK    1  A    between atoms: C_1  and  C_2 
REMARK    2  A    between atoms: C_8  and  C_10 
REMARK    3  A    between atoms: C_10  and  C_11 
ROOT
HETATM    1  C   UNL     1      62.584   9.711   3.628  1.00  0.00     0.009 A 
HETATM    2  C   UNL     1      62.601   8.726   2.637  1.00  0.00     0.015 A 
HETATM    3  C   UNL     1      63.120   9.427   4.889  1.00  0.00     0.015 A 
HETATM    4  C   UNL     1      63.713   8.188   5.140  1.00  0.00     0.008 A 
HETATM    5  C   UNL     1      63.194   7.484   2.892  1.00  0.00     0.008 A 
HETATM    6  C   UNL     1      63.774   7.211   4.137  1.00  0.00    -0.058 A 
ENDROOT
BRANCH   1   7
HETATM    7  C   UNL     1      62.009  11.067   3.401  1.00  0.00     0.155 C 
HETATM    8  O   UNL     1      61.800  11.804   4.363  1.00  0.00    -0.293 OA
HETATM    9  C   UNL     1      61.752  11.545   1.994  1.00  0.00     0.096 C 
ENDBRANCH   1   7
BRANCH   6  10
HETATM   10  C   UNL     1      64.437   5.883   4.410  1.00  0.00     0.038 C 
BRANCH  10  11
HETATM   11  C   UNL     1      65.728   5.638   3.618  1.00  0.00     0.000 C 
HETATM   12  C   UNL     1      66.837   6.629   3.941  1.00  0.00     0.005 C 
ENDBRANCH  10  11
ENDBRANCH   6  10
TORSDOF 3
ENDMDL
MODEL 3
REMARK VINA RESULT:      -4.6      1.328      2.217
REMARK  3 active torsions:
REMARK  status: ('A' for Active; 'I' for Inactive)
REMARK    1  A    between atoms: C_1  and  C_2 
REMARK    2  A    between atoms: C_8  and  C_10 
REMARK    3  A    between atoms: C_10  and  C_11 
ROOT
HETATM    1  C   UNL     1      63.976   8.237   5.004  1.00  0.00     0.009 A 
HETATM    2  C   UNL     1      63.273   9.442   5.070  1.00  0.00     0.015 A 
HETATM    3  C   UNL     1      63.863   7.435   3.863  1.00  0.00     0.015 A 
HETATM    4  C   UNL     1      63.094   7.859   2.777  1.00  0.00     0.008 A 
HETATM    5  C   UNL     1      62.501   9.864   3.981  1.00  0.00     0.008 A 
HETATM    6  C   UNL     1      62.422   9.088   2.818  1.00  0.00    -0.058 A 
ENDROOT
BRANCH   1   7
HETATM    7  C   UNL     1      64.850   7.756   6.113  1.00  0.00     0.155 C 
HETATM    8  O   UNL     1      64.347   7.166   7.066  1.00  0.00    -0.293 OA
HETATM    9  C   UNL     1      66.344   7.941   6.021  1.00  0.00     0.096 C 
ENDBRANCH   1   7
BRANCH   6  10
HETATM   10  C   UNL     1      61.612   9.550   1.630  1.00  0.00     0.038 C 
BRANCH  10  11
HETATM   11  C   UNL     1      61.235   8.438   0.643  1.00  0.00     0.000 C 
HETATM   12  C   UNL     1      59.747   8.117   0.628  1.00  0.00     0.005 C 
ENDBRANCH  10  11
ENDBRANCH   6  10
TORSDOF 3
ENDMDL
MODEL 4
REMARK VINA RESULT:      -4.3      2.607      5.053
REMARK  3 active torsions:
REMARK  status: ('A' for Active; 'I' for Inactive)
REMARK    1  A    between atoms: C_1  and  C_2 
REMARK    2  A    between atoms: C_8  and  C_10 
REMARK    3  A    between atoms: C_10  and  C_11 
ROOT
HETATM    1  C   UNL     1      62.538   9.860   3.777  1.00  0.00     0.009 A 
HETATM    2  C   UNL     1      63.078   9.523   5.021  1.00  0.00     0.015 A 
HETATM    3  C   UNL     1      62.504   8.902   2.759  1.00  0.00     0.015 A 
HETATM    4  C   UNL     1      62.959   7.603   2.997  1.00  0.00     0.008 A 
HETATM    5  C   UNL     1      63.536   8.221   5.257  1.00  0.00     0.008 A 
HETATM    6  C   UNL     1      63.461   7.244   4.256  1.00  0.00    -0.058 A 
ENDROOT
BRANCH   1   7
HETATM    7  C   UNL     1      61.993  11.216   3.481  1.00  0.00     0.155 C 
HETATM    8  O   UNL     1      61.805  12.007   4.402  1.00  0.00    -0.293 OA
HETATM    9  C   UNL     1      61.742  11.624   2.051  1.00  0.00     0.096 C 
ENDBRANCH   1   7
BRANCH   6  10
HETATM   10  C   UNL     1      63.930   5.833   4.512  1.00  0.00     0.038 C 
BRANCH  10  11
HETATM   11  C   UNL     1      62.961   4.977   5.338  1.00  0.00     0.000 C 
HETATM   12  C   UNL     1      61.872   4.316   4.504  1.00  0.00     0.005 C 
ENDBRANCH  10  11
ENDBRANCH   6  10
TORSDOF 3
ENDMDL
MODEL 5
REMARK VINA RESULT:      -4.3      2.055      2.924
REMARK  3 active torsions:
REMARK  status: ('A' for Active; 'I' for Inactive)
REMARK    1  A    between atoms: C_1  and  C_2 
REMARK    2  A    between atoms: C_8  and  C_10 
REMARK    3  A    between atoms: C_10  and  C_11 
ROOT
HETATM    1  C   UNL     1      65.499   6.510   7.143  1.00  0.00     0.009 A 
HETATM    2  C   UNL     1      64.220   6.141   6.720  1.00  0.00     0.015 A 
HETATM    3  C   UNL     1      66.156   7.569   6.505  1.00  0.00     0.015 A 
HETATM    4  C   UNL     1      65.519   8.284   5.490  1.00  0.00     0.008 A 
HETATM    5  C   UNL     1      63.584   6.858   5.700  1.00  0.00     0.008 A 
HETATM    6  C   UNL     1      64.217   7.949   5.091  1.00  0.00    -0.058 A 
ENDROOT
BRANCH   1   7
HETATM    7  C   UNL     1      66.209   5.814   8.254  1.00  0.00     0.155 C 
HETATM    8  O   UNL     1      65.976   4.627   8.470  1.00  0.00    -0.293 OA
HETATM    9  C   UNL     1      67.251   6.554   9.055  1.00  0.00     0.096 C 
ENDBRANCH   1   7
BRANCH   6  10
HETATM   10  C   UNL     1      63.527   8.742   4.008  1.00  0.00     0.038 C 
BRANCH  10  11
HETATM   11  C   UNL     1      62.407   9.664   4.506  1.00  0.00     0.000 C 
HETATM   12  C   UNL     1      62.906  10.819   5.362  1.00  0.00     0.005 C 
ENDBRANCH  10  11
ENDBRANCH   6  10
TORSDOF 3
ENDMDL
MODEL 6
REMARK VINA RESULT:      -4.2      3.040      5.246
REMARK  3 active torsions:
REMARK  status: ('A' for Active; 'I' for Inactive)
REMARK    1  A    between atoms: C_1  and  C_2 
REMARK    2  A    between atoms: C_8  and  C_10 
REMARK    3  A    between atoms: C_10  and  C_11 
ROOT
HETATM    1  C   UNL     1      62.212   9.470   2.379  1.00  0.00     0.009 A 
HETATM    2  C   UNL     1      61.921   9.127   1.056  1.00  0.00     0.015 A 
HETATM    3  C   UNL     1      62.863   8.545   3.202  1.00  0.00     0.015 A 
HETATM    4  C   UNL     1      63.265   7.309   2.694  1.00  0.00     0.008 A 
HETATM    5  C   UNL     1      62.322   7.885   0.549  1.00  0.00     0.008 A 
HETATM    6  C   UNL     1      63.016   6.974   1.355  1.00  0.00    -0.058 A 
ENDROOT
BRANCH   1   7
HETATM    7  C   UNL     1      61.851  10.794   2.962  1.00  0.00     0.155 C 
HETATM    8  O   UNL     1      61.699  10.898   4.177  1.00  0.00    -0.293 OA
HETATM    9  C   UNL     1      61.741  12.001   2.065  1.00  0.00     0.096 C 
ENDBRANCH   1   7
BRANCH   6  10
HETATM   10  C   UNL     1      63.474   5.644   0.807  1.00  0.00     0.038 C 
BRANCH  10  11
HETATM   11  C   UNL     1      63.536   4.514   1.842  1.00  0.00     0.000 C 
HETATM   12  C   UNL     1      64.951   4.035   2.135  1.00  0.00     0.005 C 
ENDBRANCH  10  11
ENDBRANCH   6  10
TORSDOF 3
ENDMDL
MODEL 7
REMARK VINA RESULT:      -4.0      4.637      6.799
REMARK  3 active torsions:
REMARK  status: ('A' for Active; 'I' for Inactive)
REMARK    1  A    between atoms: C_1  and  C_2 
REMARK    2  A    between atoms: C_8  and  C_10 
REMARK    3  A    between atoms: C_10  and  C_11 
ROOT
HETATM    1  C   UNL     1      58.589   7.196   1.499  1.00  0.00     0.009 A 
HETATM    2  C   UNL     1      58.958   7.269   2.844  1.00  0.00     0.015 A 
HETATM    3  C   UNL     1      59.375   7.834   0.534  1.00  0.00     0.015 A 
HETATM    4  C   UNL     1      60.547   8.496   0.905  1.00  0.00     0.008 A 
HETATM    5  C   UNL     1      60.132   7.935   3.214  1.00  0.00     0.008 A 
HETATM    6  C   UNL     1      60.948   8.536   2.247  1.00  0.00    -0.058 A 
ENDROOT
BRANCH   1   7
HETATM    7  C   UNL     1      57.375   6.462   1.039  1.00  0.00     0.155 C 
HETATM    8  O   UNL     1      56.283   7.027   1.059  1.00  0.00    -0.293 OA
HETATM    9  C   UNL     1      57.509   5.063   0.492  1.00  0.00     0.096 C 
ENDBRANCH   1   7
BRANCH   6  10
HETATM   10  C   UNL     1      62.229   9.234   2.637  1.00  0.00     0.038 C 
BRANCH  10  11
HETATM   11  C   UNL     1      62.040  10.651   3.192  1.00  0.00     0.000 C 
HETATM   12  C   UNL     1      61.791  11.697   2.115  1.00  0.00     0.005 C 
ENDBRANCH  10  11
ENDBRANCH   6  10
TORSDOF 3
ENDMDL
MODEL 8
REMARK VINA RESULT:      -4.0      2.289      5.542
REMARK  3 active torsions:
REMARK  status: ('A' for Active; 'I' for Inactive)
REMARK    1  A    between atoms: C_1  and  C_2 
REMARK    2  A    between atoms: C_8  and  C_10 
REMARK    3  A    between atoms: C_10  and  C_11 
ROOT
HETATM    1  C   UNL     1      63.007   8.314   3.310  1.00  0.00     0.009 A 
HETATM    2  C   UNL     1      63.373   9.149   4.369  1.00  0.00     0.015 A 
HETATM    3  C   UNL     1      63.725   7.135   3.083  1.00  0.00     0.015 A 
HETATM    4  C   UNL     1      64.767   6.769   3.938  1.00  0.00     0.008 A 
HETATM    5  C   UNL     1      64.420   8.782   5.222  1.00  0.00     0.008 A 
HETATM    6  C   UNL     1      65.112   7.580   5.029  1.00  0.00    -0.058 A 
ENDROOT
BRANCH   1   7
HETATM    7  C   UNL     1      61.873   8.629   2.395  1.00  0.00     0.155 C 
HETATM    8  O   UNL     1      60.980   7.801   2.232  1.00  0.00    -0.293 OA
HETATM    9  C   UNL     1      61.799   9.983   1.734  1.00  0.00     0.096 C 
ENDBRANCH   1   7
BRANCH   6  10
HETATM   10  C   UNL     1      66.224   7.165   5.961  1.00  0.00     0.038 C 
BRANCH  10  11
HETATM   11  C   UNL     1      65.762   6.753   7.364  1.00  0.00     0.000 C 
HETATM   12  C   UNL     1      66.879   6.760   8.398  1.00  0.00     0.005 C 
ENDBRANCH  10  11
ENDBRANCH   6  10
TORSDOF 3
ENDMDL
MODEL 9
REMARK VINA RESULT:      -3.8      3.585      5.523
REMARK  3 active torsions:
REMARK  status: ('A' for Active; 'I' for Inactive)
REMARK    1  A    between atoms: C_1  and  C_2 
REMARK    2  A    between atoms: C_8  and  C_10 
REMARK    3  A    between atoms: C_10  and  C_11 
ROOT
HETATM    1  C   UNL     1      62.023   8.989   2.972  1.00  0.00     0.009 A 
HETATM    2  C   UNL     1      62.996   9.008   3.973  1.00  0.00     0.015 A 
HETATM    3  C   UNL     1      60.967   8.075   3.055  1.00  0.00     0.015 A 
HETATM    4  C   UNL     1      60.858   7.222   4.156  1.00  0.00     0.008 A 
HETATM    5  C   UNL     1      62.887   8.150   5.074  1.00  0.00     0.008 A 
HETATM    6  C   UNL     1      61.807   7.266   5.187  1.00  0.00    -0.058 A 
ENDROOT
BRANCH   1   7
HETATM    7  C   UNL     1      62.061   9.908   1.799  1.00  0.00     0.155 C 
HETATM    8  O   UNL     1      62.211   9.444   0.671  1.00  0.00    -0.293 OA
HETATM    9  C   UNL     1      61.848  11.387   2.001  1.00  0.00     0.096 C 
ENDBRANCH   1   7
BRANCH   6  10
HETATM   10  C   UNL     1      61.669   6.357   6.384  1.00  0.00     0.038 C 
BRANCH  10  11
HETATM   11  C   UNL     1      60.474   5.397   6.324  1.00  0.00     0.000 C 
HETATM   12  C   UNL     1      60.050   4.867   7.686  1.00  0.00     0.005 C 
ENDBRANCH  10  11
ENDBRANCH   6  10
TORSDOF 3
ENDMDL
