MODEL 1
REMARK VINA RESULT:      -5.1      0.000      0.000
REMARK  1 active torsions:
REMARK  status: ('A' for Active; 'I' for Inactive)
REMARK    1  A    between atoms: N_1  and  C_2 
REMARK       I    between atoms: N_1  and  C_3 
ROOT
HETATM    1  C   UNL     1      62.848   8.956   5.045  1.00  0.00     0.040 A 
HETATM    2  C   UNL     1      62.632   8.519   3.729  1.00  0.00    -0.034 A 
HETATM    3  C   UNL     1      62.211   9.459   2.768  1.00  0.00     0.032 A 
HETATM    4  C   UNL     1      62.744  10.320   5.360  1.00  0.00     0.032 A 
HETATM    5  C   UNL     1      62.076  10.805   3.100  1.00  0.00     0.034 A 
HETATM    6  C   UNL     1      62.366  11.247   4.386  1.00  0.00     0.026 A 
HETATM    7 CL   UNL     1      61.544  11.930   1.910  1.00  0.00    -0.084 Cl
HETATM    8  C   UNL     1      62.732   7.082   3.300  1.00  0.00     0.050 C 
ENDROOT
BRANCH   1   9
HETATM    9  N   UNL     1      63.215   8.050   6.046  1.00  0.00    -0.327 N 
HETATM   10  C   UNL     1      64.477   7.599   6.328  1.00  0.00     0.218 C 
HETATM   11  O   UNL     1      64.643   6.795   7.249  1.00  0.00    -0.274 OA
HETATM   12  C   UNL     1      65.647   8.165   5.566  1.00  0.00     0.117 C 
HETATM   13  H   UNL     1      62.487   7.698   6.607  1.00  0.00     0.169 HD
ENDBRANCH   1   9
TORSDOF 1
ENDMDL
MODEL 2
REMARK VINA RESULT:      -4.7      1.401      2.510
REMARK  1 active torsions:
REMARK  status: ('A' for Active; 'I' for Inactive)
REMARK    1  A    between atoms: N_1  and  C_2 
REMARK       I    between atoms: N_1  and  C_3 
ROOT
HETATM    1  C   UNL     1      63.682   8.181   4.721  1.00  0.00     0.040 A 
HETATM    2  C   UNL     1      63.034   9.400   4.470  1.00  0.00    -0.034 A 
HETATM    3  C   UNL     1      62.446   9.603   3.207  1.00  0.00     0.032 A 
HETATM    4  C   UNL     1      63.648   7.156   3.763  1.00  0.00     0.032 A 
HETATM    5  C   UNL     1      62.450   8.592   2.249  1.00  0.00     0.034 A 
HETATM    6  C   UNL     1      63.025   7.357   2.530  1.00  0.00     0.026 A 
HETATM    7 CL   UNL     1      61.739   8.873   0.707  1.00  0.00    -0.084 Cl
HETATM    8  C   UNL     1      63.010  10.547   5.442  1.00  0.00     0.050 C 
ENDROOT
BRANCH   1   9
HETATM    9  N   UNL     1      64.326   7.953   5.942  1.00  0.00    -0.327 N 
HETATM   10  C   UNL     1      65.667   7.762   6.146  1.00  0.00     0.218 C 
HETATM   11  O   UNL     1      66.087   7.572   7.289  1.00  0.00    -0.274 OA
HETATM   12  C   UNL     1      66.611   7.881   4.977  1.00  0.00     0.117 C 
HETATM   13  H   UNL     1      63.752   7.925   6.742  1.00  0.00     0.169 HD
ENDBRANCH   1   9
TORSDOF 1
ENDMDL
MODEL 3
REMARK VINA RESULT:      -4.4      2.288      3.119
REMARK  1 active torsions:
REMARK  status: ('A' for Active; 'I' for Inactive)
REMARK    1  A    between atoms: N_1  and  C_2 
REMARK       I    between atoms: N_1  and  C_3 
ROOT
HETATM    1  C   UNL     1      62.543   8.273   3.360  1.00  0.00     0.040 A 
HETATM    2  C   UNL     1      61.475   7.450   3.751  1.00  0.00    -0.034 A 
HETATM    3  C   UNL     1      60.345   7.371   2.915  1.00  0.00     0.032 A 
HETATM    4  C   UNL     1      62.515   8.917   2.113  1.00  0.00     0.032 A 
HETATM    5  C   UNL     1      60.312   8.044   1.696  1.00  0.00     0.034 A 
HETATM    6  C   UNL     1      61.404   8.797   1.276  1.00  0.00     0.026 A 
HETATM    7 CL   UNL     1      58.910   7.945   0.702  1.00  0.00    -0.084 Cl
HETATM    8  C   UNL     1      61.426   6.714   5.061  1.00  0.00     0.050 C 
ENDROOT
BRANCH   1   9
HETATM    9  N   UNL     1      63.664   8.424   4.182  1.00  0.00    -0.327 N 
HETATM   10  C   UNL     1      63.913   9.444   5.061  1.00  0.00     0.218 C 
HETATM   11  O   UNL     1      64.954   9.438   5.721  1.00  0.00    -0.274 OA
HETATM   12  C   UNL     1      62.864  10.506   5.269  1.00  0.00     0.117 C 
HETATM   13  H   UNL     1      64.351   7.721   4.120  1.00  0.00     0.169 HD
ENDBRANCH   1   9
TORSDOF 1
ENDMDL
MODEL 4
REMARK VINA RESULT:      -4.3      1.274      1.583
REMARK  1 active torsions:
REMARK  status: ('A' for Active; 'I' for Inactive)
REMARK    1  A    between atoms: N_1  and  C_2 
REMARK       I    between atoms: N_1  and  C_3 
ROOT
HETATM    1  C   UNL     1      63.542   7.885   5.107  1.00  0.00     0.040 A 
HETATM    2  C   UNL     1      63.602   7.133   3.923  1.00  0.00    -0.034 A 
HETATM    3  C   UNL     1      63.057   7.683   2.748  1.00  0.00     0.032 A 
HETATM    4  C   UNL     1      63.039   9.196   5.083  1.00  0.00     0.032 A 
HETATM    5  C   UNL     1      62.527   8.971   2.743  1.00  0.00     0.034 A 
HETATM    6  C   UNL     1      62.540   9.743   3.900  1.00  0.00     0.026 A 
HETATM    7 CL   UNL     1      61.851   9.613   1.296  1.00  0.00    -0.084 Cl
HETATM    8  C   UNL     1      64.134   5.729   3.854  1.00  0.00     0.050 C 
ENDROOT
BRANCH   1   9
HETATM    9  N   UNL     1      64.023   7.360   6.311  1.00  0.00    -0.327 N 
HETATM   10  C   UNL     1      65.321   7.351   6.747  1.00  0.00     0.218 C 
HETATM   11  O   UNL     1      65.591   6.848   7.840  1.00  0.00    -0.274 OA
HETATM   12  C   UNL     1      66.378   8.038   5.922  1.00  0.00     0.117 C 
HETATM   13  H   UNL     1      63.356   6.952   6.909  1.00  0.00     0.169 HD
ENDBRANCH   1   9
TORSDOF 1
ENDMDL
MODEL 5
REMARK VINA RESULT:      -4.3      3.551      4.896
REMARK  1 active torsions:
REMARK  status: ('A' for Active; 'I' for Inactive)
REMARK    1  A    between atoms: N_1  and  C_2 
REMARK       I    between atoms: N_1  and  C_3 
ROOT
HETATM    1  C   UNL     1      62.396   8.220   3.405  1.00  0.00     0.040 A 
HETATM    2  C   UNL     1      62.807   9.376   4.088  1.00  0.00    -0.034 A 
HETATM    3  C   UNL     1      63.976   9.315   4.870  1.00  0.00     0.032 A 
HETATM    4  C   UNL     1      63.197   7.068   3.427  1.00  0.00     0.032 A 
HETATM    5  C   UNL     1      64.745   8.155   4.914  1.00  0.00     0.034 A 
HETATM    6  C   UNL     1      64.377   7.037   4.173  1.00  0.00     0.026 A 
HETATM    7 CL   UNL     1      66.161   8.103   5.892  1.00  0.00    -0.084 Cl
HETATM    8  C   UNL     1      62.019  10.655   4.111  1.00  0.00     0.050 C 
ENDROOT
BRANCH   1   9
HETATM    9  N   UNL     1      61.214   8.216   2.658  1.00  0.00    -0.327 N 
HETATM   10  C   UNL     1      61.073   8.530   1.333  1.00  0.00     0.218 C 
HETATM   11  O   UNL     1      59.957   8.478   0.811  1.00  0.00    -0.274 OA
HETATM   12  C   UNL     1      62.302   8.842   0.518  1.00  0.00     0.117 C 
HETATM   13  H   UNL     1      60.392   7.961   3.139  1.00  0.00     0.169 HD
ENDBRANCH   1   9
TORSDOF 1
ENDMDL
MODEL 6
REMARK VINA RESULT:      -4.2      2.659      3.482
REMARK  1 active torsions:
REMARK  status: ('A' for Active; 'I' for Inactive)
REMARK    1  A    between atoms: N_1  and  C_2 
REMARK       I    between atoms: N_1  and  C_3 
ROOT
HETATM    1  C   UNL     1      61.657   9.039   3.505  1.00  0.00     0.040 A 
HETATM    2  C   UNL     1      61.521   9.540   2.201  1.00  0.00    -0.034 A 
HETATM    3  C   UNL     1      60.863   8.749   1.241  1.00  0.00     0.032 A 
HETATM    4  C   UNL     1      61.055   7.820   3.857  1.00  0.00     0.032 A 
HETATM    5  C   UNL     1      60.301   7.523   1.591  1.00  0.00     0.034 A 
HETATM    6  C   UNL     1      60.369   7.066   2.903  1.00  0.00     0.026 A 
HETATM    7 CL   UNL     1      59.517   6.569   0.393  1.00  0.00    -0.084 Cl
HETATM    8  C   UNL     1      62.122  10.839   1.741  1.00  0.00     0.050 C 
ENDROOT
BRANCH   1   9
HETATM    9  N   UNL     1      62.348   9.765   4.480  1.00  0.00    -0.327 N 
HETATM   10  C   UNL     1      63.582   9.480   5.003  1.00  0.00     0.218 C 
HETATM   11  O   UNL     1      64.064  10.221   5.863  1.00  0.00    -0.274 OA
HETATM   12  C   UNL     1      64.363   8.317   4.448  1.00  0.00     0.117 C 
HETATM   13  H   UNL     1      61.898  10.568   4.831  1.00  0.00     0.169 HD
ENDBRANCH   1   9
TORSDOF 1
ENDMDL
MODEL 7
REMARK VINA RESULT:      -4.2      2.091      3.300
REMARK  1 active torsions:
REMARK  status: ('A' for Active; 'I' for Inactive)
REMARK    1  A    between atoms: N_1  and  C_2 
REMARK       I    between atoms: N_1  and  C_3 
ROOT
HETATM    1  C   UNL     1      62.705   7.762   2.877  1.00  0.00     0.040 A 
HETATM    2  C   UNL     1      62.648   8.714   3.908  1.00  0.00    -0.034 A 
HETATM    3  C   UNL     1      62.318  10.042   3.581  1.00  0.00     0.032 A 
HETATM    4  C   UNL     1      62.338   8.118   1.570  1.00  0.00     0.032 A 
HETATM    5  C   UNL     1      61.991  10.393   2.273  1.00  0.00     0.034 A 
HETATM    6  C   UNL     1      61.972   9.432   1.268  1.00  0.00     0.026 A 
HETATM    7 CL   UNL     1      61.607  12.029   1.897  1.00  0.00    -0.084 Cl
HETATM    8  C   UNL     1      63.012   8.418   5.336  1.00  0.00     0.050 C 
ENDROOT
BRANCH   1   9
HETATM    9  N   UNL     1      63.079   6.442   3.145  1.00  0.00    -0.327 N 
HETATM   10  C   UNL     1      62.265   5.419   3.553  1.00  0.00     0.218 C 
HETATM   11  O   UNL     1      62.746   4.301   3.750  1.00  0.00    -0.274 OA
HETATM   12  C   UNL     1      60.781   5.661   3.664  1.00  0.00     0.117 C 
HETATM   13  H   UNL     1      64.033   6.224   3.030  1.00  0.00     0.169 HD
ENDBRANCH   1   9
TORSDOF 1
ENDMDL
MODEL 8
REMARK VINA RESULT:      -4.1      2.599      3.313
REMARK  1 active torsions:
REMARK  status: ('A' for Active; 'I' for Inactive)
REMARK    1  A    between atoms: N_1  and  C_2 
REMARK       I    between atoms: N_1  and  C_3 
ROOT
HETATM    1  C   UNL     1      62.537   8.079   5.177  1.00  0.00     0.040 A 
HETATM    2  C   UNL     1      61.855   8.675   4.105  1.00  0.00    -0.034 A 
HETATM    3  C   UNL     1      60.753   8.000   3.549  1.00  0.00     0.032 A 
HETATM    4  C   UNL     1      62.058   6.886   5.740  1.00  0.00     0.032 A 
HETATM    5  C   UNL     1      60.307   6.796   4.092  1.00  0.00     0.034 A 
HETATM    6  C   UNL     1      60.937   6.248   5.203  1.00  0.00     0.026 A 
HETATM    7 CL   UNL     1      58.966   5.983   3.382  1.00  0.00    -0.084 Cl
HETATM    8  C   UNL     1      62.291   9.956   3.449  1.00  0.00     0.050 C 
ENDROOT
BRANCH   1   9
HETATM    9  N   UNL     1      63.670   8.687   5.728  1.00  0.00    -0.327 N 
HETATM   10  C   UNL     1      64.980   8.375   5.477  1.00  0.00     0.218 C 
HETATM   11  O   UNL     1      65.874   9.006   6.044  1.00  0.00    -0.274 OA
HETATM   12  C   UNL     1      65.299   7.327   4.442  1.00  0.00     0.117 C 
HETATM   13  H   UNL     1      63.508   9.418   6.368  1.00  0.00     0.169 HD
ENDBRANCH   1   9
TORSDOF 1
ENDMDL
MODEL 9
REMARK VINA RESULT:      -3.9      2.617      3.566
REMARK  1 active torsions:
REMARK  status: ('A' for Active; 'I' for Inactive)
REMARK    1  A    between atoms: N_1  and  C_2 
REMARK       I    between atoms: N_1  and  C_3 
ROOT
HETATM    1  C   UNL     1      62.962   7.835   2.789  1.00  0.00     0.040 A 
HETATM    2  C   UNL     1      62.332   8.821   2.014  1.00  0.00    -0.034 A 
HETATM    3  C   UNL     1      62.044  10.064   2.610  1.00  0.00     0.032 A 
HETATM    4  C   UNL     1      63.383   8.129   4.096  1.00  0.00     0.032 A 
HETATM    5  C   UNL     1      62.433  10.333   3.920  1.00  0.00     0.034 A 
HETATM    6  C   UNL     1      63.127   9.380   4.659  1.00  0.00     0.026 A 
HETATM    7 CL   UNL     1      62.053  11.855   4.630  1.00  0.00    -0.084 Cl
HETATM    8  C   UNL     1      61.859   8.598   0.605  1.00  0.00     0.050 C 
ENDROOT
BRANCH   1   9
HETATM    9  N   UNL     1      63.221   6.568   2.258  1.00  0.00    -0.327 N 
HETATM   10  C   UNL     1      62.445   5.446   2.380  1.00  0.00     0.218 C 
HETATM   11  O   UNL     1      62.809   4.394   1.850  1.00  0.00    -0.274 OA
HETATM   12  C   UNL     1      61.115   5.546   3.083  1.00  0.00     0.117 C 
HETATM   13  H   UNL     1      64.053   6.471   1.740  1.00  0.00     0.169 HD
ENDBRANCH   1   9
TORSDOF 1
ENDMDL
