MODEL 1
REMARK VINA RESULT:      -5.0      0.000      0.000
REMARK  2 active torsions:
REMARK  status: ('A' for Active; 'I' for Inactive)
REMARK    1  A    between atoms: C_1  and  C_2 
REMARK    2  A    between atoms: C_5  and  C_10 
ROOT
HETATM    1  C   UNL     1      63.100   9.179   4.471  1.00  0.00     0.010 A 
HETATM    2  C   UNL     1      62.863   8.727   3.166  1.00  0.00     0.022 A 
HETATM    3  C   UNL     1      62.201   9.543   2.236  1.00  0.00    -0.058 A 
HETATM    4  C   UNL     1      62.683  10.464   4.840  1.00  0.00     0.015 A 
HETATM    5  C   UNL     1      62.032  11.283   3.918  1.00  0.00     0.002 A 
HETATM    6  C   UNL     1      61.791  10.825   2.624  1.00  0.00     0.007 A 
ENDROOT
BRANCH   1   7
HETATM    7  C   UNL     1      63.777   8.326   5.493  1.00  0.00     0.155 C 
HETATM    8  O   UNL     1      63.135   7.870   6.435  1.00  0.00    -0.293 OA
HETATM    9  C   UNL     1      65.250   8.043   5.343  1.00  0.00     0.096 C 
ENDBRANCH   1   7
BRANCH   3  10
HETATM   10  C   UNL     1      61.899   9.026   0.850  1.00  0.00     0.034 C 
HETATM   11  C   UNL     1      60.578   8.269   0.799  1.00  0.00     0.010 C 
ENDBRANCH   3  10
TORSDOF 2
ENDMDL
MODEL 2
REMARK VINA RESULT:      -4.7      1.628      2.852
REMARK  2 active torsions:
REMARK  status: ('A' for Active; 'I' for Inactive)
REMARK    1  A    between atoms: C_1  and  C_2 
REMARK    2  A    between atoms: C_5  and  C_10 
ROOT
HETATM    1  C   UNL     1      64.389   8.112   4.811  1.00  0.00     0.010 A 
HETATM    2  C   UNL     1      63.612   9.277   4.773  1.00  0.00     0.022 A 
HETATM    3  C   UNL     1      62.710   9.501   3.722  1.00  0.00    -0.058 A 
HETATM    4  C   UNL     1      64.249   7.158   3.795  1.00  0.00     0.015 A 
HETATM    5  C   UNL     1      63.348   7.371   2.752  1.00  0.00     0.002 A 
HETATM    6  C   UNL     1      62.584   8.536   2.714  1.00  0.00     0.007 A 
ENDROOT
BRANCH   1   7
HETATM    7  C   UNL     1      65.378   7.855   5.901  1.00  0.00     0.155 C 
HETATM    8  O   UNL     1      66.361   8.582   6.022  1.00  0.00    -0.293 OA
HETATM    9  C   UNL     1      65.146   6.697   6.836  1.00  0.00     0.096 C 
ENDBRANCH   1   7
BRANCH   3  10
HETATM   10  C   UNL     1      61.920  10.785   3.659  1.00  0.00     0.034 C 
HETATM   11  C   UNL     1      61.804  11.315   2.237  1.00  0.00     0.010 C 
ENDBRANCH   3  10
TORSDOF 2
ENDMDL
MODEL 3
REMARK VINA RESULT:      -4.7      1.945      3.382
REMARK  2 active torsions:
REMARK  status: ('A' for Active; 'I' for Inactive)
REMARK    1  A    between atoms: C_1  and  C_2 
REMARK    2  A    between atoms: C_5  and  C_10 
ROOT
HETATM    1  C   UNL     1      62.493   9.823   3.559  1.00  0.00     0.010 A 
HETATM    2  C   UNL     1      62.427   8.905   2.503  1.00  0.00     0.022 A 
HETATM    3  C   UNL     1      62.938   7.606   2.652  1.00  0.00    -0.058 A 
HETATM    4  C   UNL     1      63.062   9.431   4.777  1.00  0.00     0.015 A 
HETATM    5  C   UNL     1      63.564   8.138   4.934  1.00  0.00     0.002 A 
HETATM    6  C   UNL     1      63.503   7.232   3.877  1.00  0.00     0.007 A 
ENDROOT
BRANCH   1   7
HETATM    7  C   UNL     1      61.985  11.221   3.425  1.00  0.00     0.155 C 
HETATM    8  O   UNL     1      61.801  11.907   4.427  1.00  0.00    -0.293 OA
HETATM    9  C   UNL     1      61.704  11.763   2.047  1.00  0.00     0.096 C 
ENDBRANCH   1   7
BRANCH   3  10
HETATM   10  C   UNL     1      62.914   6.643   1.490  1.00  0.00     0.034 C 
HETATM   11  C   UNL     1      62.454   7.311   0.202  1.00  0.00     0.010 C 
ENDBRANCH   3  10
TORSDOF 2
ENDMDL
MODEL 4
REMARK VINA RESULT:      -4.7      1.773      4.424
REMARK  2 active torsions:
REMARK  status: ('A' for Active; 'I' for Inactive)
REMARK    1  A    between atoms: C_1  and  C_2 
REMARK    2  A    between atoms: C_5  and  C_10 
ROOT
HETATM    1  C   UNL     1      62.552   9.650   3.291  1.00  0.00     0.010 A 
HETATM    2  C   UNL     1      63.387   9.183   4.314  1.00  0.00     0.022 A 
HETATM    3  C   UNL     1      63.880   7.870   4.291  1.00  0.00    -0.058 A 
HETATM    4  C   UNL     1      62.221   8.797   2.230  1.00  0.00     0.015 A 
HETATM    5  C   UNL     1      62.714   7.493   2.197  1.00  0.00     0.002 A 
HETATM    6  C   UNL     1      63.538   7.031   3.222  1.00  0.00     0.007 A 
ENDROOT
BRANCH   1   7
HETATM    7  C   UNL     1      61.988  11.033   3.299  1.00  0.00     0.155 C 
HETATM    8  O   UNL     1      61.751  11.593   4.366  1.00  0.00    -0.293 OA
HETATM    9  C   UNL     1      61.717  11.715   1.984  1.00  0.00     0.096 C 
ENDBRANCH   1   7
BRANCH   3  10
HETATM   10  C   UNL     1      64.733   7.358   5.427  1.00  0.00     0.034 C 
HETATM   11  C   UNL     1      66.172   7.845   5.326  1.00  0.00     0.010 C 
ENDBRANCH   3  10
TORSDOF 2
ENDMDL
MODEL 5
REMARK VINA RESULT:      -4.6      1.465      2.325
REMARK  2 active torsions:
REMARK  status: ('A' for Active; 'I' for Inactive)
REMARK    1  A    between atoms: C_1  and  C_2 
REMARK    2  A    between atoms: C_5  and  C_10 
ROOT
HETATM    1  C   UNL     1      62.600   9.551   3.793  1.00  0.00     0.010 A 
HETATM    2  C   UNL     1      62.862   8.329   3.160  1.00  0.00     0.022 A 
HETATM    3  C   UNL     1      62.560   8.148   1.802  1.00  0.00    -0.058 A 
HETATM    4  C   UNL     1      62.046  10.604   3.053  1.00  0.00     0.015 A 
HETATM    5  C   UNL     1      61.751  10.432   1.701  1.00  0.00     0.002 A 
HETATM    6  C   UNL     1      62.005   9.211   1.079  1.00  0.00     0.007 A 
ENDROOT
BRANCH   1   7
HETATM    7  C   UNL     1      62.884   9.768   5.243  1.00  0.00     0.155 C 
HETATM    8  O   UNL     1      63.032   8.805   5.991  1.00  0.00    -0.293 OA
HETATM    9  C   UNL     1      62.982  11.180   5.761  1.00  0.00     0.096 C 
ENDBRANCH   1   7
BRANCH   3  10
HETATM   10  C   UNL     1      62.791   6.809   1.144  1.00  0.00     0.034 C 
HETATM   11  C   UNL     1      63.770   5.947   1.930  1.00  0.00     0.010 C 
ENDBRANCH   3  10
TORSDOF 2
ENDMDL
MODEL 6
REMARK VINA RESULT:      -4.4      1.952      4.323
REMARK  2 active torsions:
REMARK  status: ('A' for Active; 'I' for Inactive)
REMARK    1  A    between atoms: C_1  and  C_2 
REMARK    2  A    between atoms: C_5  and  C_10 
ROOT
HETATM    1  C   UNL     1      62.067   9.377   2.519  1.00  0.00     0.010 A 
HETATM    2  C   UNL     1      62.803   8.540   3.369  1.00  0.00     0.022 A 
HETATM    3  C   UNL     1      63.190   8.979   4.644  1.00  0.00    -0.058 A 
HETATM    4  C   UNL     1      61.706  10.656   2.958  1.00  0.00     0.015 A 
HETATM    5  C   UNL     1      62.081  11.095   4.228  1.00  0.00     0.002 A 
HETATM    6  C   UNL     1      62.820  10.262   5.065  1.00  0.00     0.007 A 
ENDROOT
BRANCH   1   7
HETATM    7  C   UNL     1      61.663   8.951   1.146  1.00  0.00     0.155 C 
HETATM    8  O   UNL     1      62.449   9.069   0.209  1.00  0.00    -0.293 OA
HETATM    9  C   UNL     1      60.284   8.381   0.938  1.00  0.00     0.096 C 
ENDBRANCH   1   7
BRANCH   3  10
HETATM   10  C   UNL     1      64.032   8.092   5.530  1.00  0.00     0.034 C 
HETATM   11  C   UNL     1      65.518   8.391   5.390  1.00  0.00     0.010 C 
ENDBRANCH   3  10
TORSDOF 2
ENDMDL
MODEL 7
REMARK VINA RESULT:      -4.4      2.246      3.338
REMARK  2 active torsions:
REMARK  status: ('A' for Active; 'I' for Inactive)
REMARK    1  A    between atoms: C_1  and  C_2 
REMARK    2  A    between atoms: C_5  and  C_10 
ROOT
HETATM    1  C   UNL     1      61.845   9.816   3.142  1.00  0.00     0.010 A 
HETATM    2  C   UNL     1      61.283   8.614   3.591  1.00  0.00     0.022 A 
HETATM    3  C   UNL     1      60.933   7.604   2.682  1.00  0.00    -0.058 A 
HETATM    4  C   UNL     1      62.069  10.000   1.772  1.00  0.00     0.015 A 
HETATM    5  C   UNL     1      61.731   8.997   0.863  1.00  0.00     0.002 A 
HETATM    6  C   UNL     1      61.165   7.807   1.315  1.00  0.00     0.007 A 
ENDROOT
BRANCH   1   7
HETATM    7  C   UNL     1      62.203  10.921   4.080  1.00  0.00     0.155 C 
HETATM    8  O   UNL     1      61.897  12.080   3.810  1.00  0.00    -0.293 OA
HETATM    9  C   UNL     1      62.942  10.586   5.350  1.00  0.00     0.096 C 
ENDBRANCH   1   7
BRANCH   3  10
HETATM   10  C   UNL     1      60.275   6.336   3.170  1.00  0.00     0.034 C 
HETATM   11  C   UNL     1      58.950   6.073   2.467  1.00  0.00     0.010 C 
ENDBRANCH   3  10
TORSDOF 2
ENDMDL
MODEL 8
REMARK VINA RESULT:      -4.3      2.333      4.082
REMARK  2 active torsions:
REMARK  status: ('A' for Active; 'I' for Inactive)
REMARK    1  A    between atoms: C_1  and  C_2 
REMARK    2  A    between atoms: C_5  and  C_10 
ROOT
HETATM    1  C   UNL     1      62.272   9.694   2.383  1.00  0.00     0.010 A 
HETATM    2  C   UNL     1      62.769   8.681   3.214  1.00  0.00     0.022 A 
HETATM    3  C   UNL     1      62.961   7.382   2.721  1.00  0.00    -0.058 A 
HETATM    4  C   UNL     1      61.978   9.404   1.045  1.00  0.00     0.015 A 
HETATM    5  C   UNL     1      62.175   8.116   0.546  1.00  0.00     0.002 A 
HETATM    6  C   UNL     1      62.661   7.110   1.380  1.00  0.00     0.007 A 
ENDROOT
BRANCH   1   7
HETATM    7  C   UNL     1      62.030  11.080   2.884  1.00  0.00     0.155 C 
HETATM    8  O   UNL     1      61.774  11.984   2.092  1.00  0.00    -0.293 OA
HETATM    9  C   UNL     1      62.108  11.342   4.366  1.00  0.00     0.096 C 
ENDBRANCH   1   7
BRANCH   3  10
HETATM   10  C   UNL     1      63.442   6.284   3.638  1.00  0.00     0.034 C 
HETATM   11  C   UNL     1      62.469   6.027   4.781  1.00  0.00     0.010 C 
ENDBRANCH   3  10
TORSDOF 2
ENDMDL
MODEL 9
REMARK VINA RESULT:      -4.2      2.116      4.144
REMARK  2 active torsions:
REMARK  status: ('A' for Active; 'I' for Inactive)
REMARK    1  A    between atoms: C_1  and  C_2 
REMARK    2  A    between atoms: C_5  and  C_10 
ROOT
HETATM    1  C   UNL     1      62.312   8.377   1.848  1.00  0.00     0.010 A 
HETATM    2  C   UNL     1      62.607   8.468   3.215  1.00  0.00     0.022 A 
HETATM    3  C   UNL     1      62.501   9.694   3.888  1.00  0.00    -0.058 A 
HETATM    4  C   UNL     1      61.894   9.520   1.156  1.00  0.00     0.015 A 
HETATM    5  C   UNL     1      61.779  10.741   1.822  1.00  0.00     0.002 A 
HETATM    6  C   UNL     1      62.082  10.828   3.180  1.00  0.00     0.007 A 
ENDROOT
BRANCH   1   7
HETATM    7  C   UNL     1      62.442   7.093   1.095  1.00  0.00     0.155 C 
HETATM    8  O   UNL     1      63.459   6.413   1.210  1.00  0.00    -0.293 OA
HETATM    9  C   UNL     1      61.310   6.657   0.201  1.00  0.00     0.096 C 
ENDBRANCH   1   7
BRANCH   3  10
HETATM   10  C   UNL     1      62.876   9.796   5.347  1.00  0.00     0.034 C 
HETATM   11  C   UNL     1      62.989  11.242   5.808  1.00  0.00     0.010 C 
ENDBRANCH   3  10
TORSDOF 2
ENDMDL
