MODEL 1
REMARK VINA RESULT:      -4.8      0.000      0.000
REMARK  4 active torsions:
REMARK  status: ('A' for Active; 'I' for Inactive)
REMARK    1  A    between atoms: C_1  and  C_4 
REMARK    2  A    between atoms: C_2  and  O_5 
REMARK    3  A    between atoms: C_3  and  O_5 
REMARK    4  A    between atoms: C_4  and  O_10 
ROOT
HETATM    1  C   UNL     1      62.955   9.475   4.214  1.00  0.00     0.073 A 
HETATM    2  C   UNL     1      62.852   8.709   3.041  1.00  0.00     0.094 A 
HETATM    3  C   UNL     1      62.428  10.783   4.239  1.00  0.00     0.020 A 
HETATM    4  C   UNL     1      62.233   9.275   1.917  1.00  0.00     0.038 A 
HETATM    5  C   UNL     1      61.812  11.329   3.118  1.00  0.00     0.001 A 
HETATM    6  C   UNL     1      61.718  10.575   1.952  1.00  0.00     0.003 A 
ENDROOT
BRANCH   2   7
HETATM    7  O   UNL     1      63.102   7.371   2.948  1.00  0.00    -0.254 OA
BRANCH   7   8
HETATM    8  C   UNL     1      62.033   6.469   3.224  1.00  0.00     0.530 C 
HETATM    9  F   UNL     1      60.990   7.041   3.860  1.00  0.00    -0.144 F 
HETATM   10  F   UNL     1      61.603   5.938   2.060  1.00  0.00    -0.144 F 
HETATM   11  F   UNL     1      62.489   5.455   3.994  1.00  0.00    -0.144 F 
ENDBRANCH   7   8
ENDBRANCH   2   7
BRANCH   1  12
HETATM   12  C   UNL     1      63.469   8.929   5.499  1.00  0.00     0.295 C 
HETATM   13  O   UNL     1      62.799   8.292   6.293  1.00  0.00    -0.259 OA
BRANCH  12  14
HETATM   14  O   UNL     1      64.780   9.256   5.617  1.00  0.00    -0.322 OA
HETATM   15  C   UNL     1      65.716   8.182   5.534  1.00  0.00     0.213 C 
ENDBRANCH  12  14
ENDBRANCH   1  12
TORSDOF 4
ENDMDL
MODEL 2
REMARK VINA RESULT:      -4.5      2.201      3.427
REMARK  4 active torsions:
REMARK  status: ('A' for Active; 'I' for Inactive)
REMARK    1  A    between atoms: C_1  and  C_4 
REMARK    2  A    between atoms: C_2  and  O_5 
REMARK    3  A    between atoms: C_3  and  O_5 
REMARK    4  A    between atoms: C_4  and  O_10 
ROOT
HETATM    1  C   UNL     1      63.079   8.316   5.111  1.00  0.00     0.073 A 
HETATM    2  C   UNL     1      62.394   8.216   3.889  1.00  0.00     0.094 A 
HETATM    3  C   UNL     1      62.754   7.438   6.165  1.00  0.00     0.020 A 
HETATM    4  C   UNL     1      61.390   7.246   3.755  1.00  0.00     0.038 A 
HETATM    5  C   UNL     1      61.759   6.477   6.016  1.00  0.00     0.001 A 
HETATM    6  C   UNL     1      61.071   6.383   4.810  1.00  0.00     0.003 A 
ENDROOT
BRANCH   2   7
HETATM    7  O   UNL     1      62.759   8.831   2.727  1.00  0.00    -0.254 OA
BRANCH   7   8
HETATM    8  C   UNL     1      61.902   9.843   2.207  1.00  0.00     0.530 C 
HETATM    9  F   UNL     1      60.839   9.361   1.530  1.00  0.00    -0.144 F 
HETATM   10  F   UNL     1      61.464  10.608   3.230  1.00  0.00    -0.144 F 
HETATM   11  F   UNL     1      62.605  10.640   1.370  1.00  0.00    -0.144 F 
ENDBRANCH   7   8
ENDBRANCH   2   7
BRANCH   1  12
HETATM   12  C   UNL     1      64.248   9.214   5.316  1.00  0.00     0.295 C 
HETATM   13  O   UNL     1      64.176  10.351   5.748  1.00  0.00    -0.259 OA
BRANCH  12  14
HETATM   14  O   UNL     1      65.374   8.552   4.950  1.00  0.00    -0.322 OA
HETATM   15  C   UNL     1      66.275   8.196   5.998  1.00  0.00     0.213 C 
ENDBRANCH  12  14
ENDBRANCH   1  12
TORSDOF 4
ENDMDL
MODEL 3
REMARK VINA RESULT:      -4.4      2.314      3.596
REMARK  4 active torsions:
REMARK  status: ('A' for Active; 'I' for Inactive)
REMARK    1  A    between atoms: C_1  and  C_4 
REMARK    2  A    between atoms: C_2  and  O_5 
REMARK    3  A    between atoms: C_3  and  O_5 
REMARK    4  A    between atoms: C_4  and  O_10 
ROOT
HETATM    1  C   UNL     1      63.158   7.337   4.651  1.00  0.00     0.073 A 
HETATM    2  C   UNL     1      63.033   8.402   3.744  1.00  0.00     0.094 A 
HETATM    3  C   UNL     1      63.179   6.012   4.170  1.00  0.00     0.020 A 
HETATM    4  C   UNL     1      62.920   8.114   2.375  1.00  0.00     0.038 A 
HETATM    5  C   UNL     1      63.072   5.742   2.810  1.00  0.00     0.001 A 
HETATM    6  C   UNL     1      62.937   6.794   1.910  1.00  0.00     0.003 A 
ENDROOT
BRANCH   2   7
HETATM    7  O   UNL     1      63.232   9.720   4.040  1.00  0.00    -0.254 OA
BRANCH   7   8
HETATM    8  C   UNL     1      62.131  10.613   3.891  1.00  0.00     0.530 C 
HETATM    9  F   UNL     1      62.104  11.248   2.701  1.00  0.00    -0.144 F 
HETATM   10  F   UNL     1      60.985   9.917   4.046  1.00  0.00    -0.144 F 
HETATM   11  F   UNL     1      62.179  11.549   4.866  1.00  0.00    -0.144 F 
ENDBRANCH   7   8
ENDBRANCH   2   7
BRANCH   1  12
HETATM   12  C   UNL     1      63.419   7.534   6.102  1.00  0.00     0.295 C 
HETATM   13  O   UNL     1      62.551   7.615   6.954  1.00  0.00    -0.259 OA
BRANCH  12  14
HETATM   14  O   UNL     1      64.760   7.600   6.298  1.00  0.00    -0.322 OA
HETATM   15  C   UNL     1      65.319   6.656   7.211  1.00  0.00     0.213 C 
ENDBRANCH  12  14
ENDBRANCH   1  12
TORSDOF 4
ENDMDL
MODEL 4
REMARK VINA RESULT:      -4.3      2.300      3.718
REMARK  4 active torsions:
REMARK  status: ('A' for Active; 'I' for Inactive)
REMARK    1  A    between atoms: C_1  and  C_4 
REMARK    2  A    between atoms: C_2  and  O_5 
REMARK    3  A    between atoms: C_3  and  O_5 
REMARK    4  A    between atoms: C_4  and  O_10 
ROOT
HETATM    1  C   UNL     1      62.564   8.400   4.024  1.00  0.00     0.073 A 
HETATM    2  C   UNL     1      63.127   8.897   5.211  1.00  0.00     0.094 A 
HETATM    3  C   UNL     1      61.952   9.290   3.118  1.00  0.00     0.020 A 
HETATM    4  C   UNL     1      63.052  10.274   5.469  1.00  0.00     0.038 A 
HETATM    5  C   UNL     1      61.890  10.654   3.385  1.00  0.00     0.001 A 
HETATM    6  C   UNL     1      62.437  11.148   4.565  1.00  0.00     0.003 A 
ENDROOT
BRANCH   2   7
HETATM    7  O   UNL     1      63.944   8.198   6.051  1.00  0.00    -0.254 OA
BRANCH   7   8
HETATM    8  C   UNL     1      65.298   7.996   5.654  1.00  0.00     0.530 C 
HETATM    9  F   UNL     1      65.620   8.605   4.494  1.00  0.00    -0.144 F 
HETATM   10  F   UNL     1      66.109   8.452   6.632  1.00  0.00    -0.144 F 
HETATM   11  F   UNL     1      65.530   6.671   5.512  1.00  0.00    -0.144 F 
ENDBRANCH   7   8
ENDBRANCH   2   7
BRANCH   1  12
HETATM   12  C   UNL     1      62.705   6.985   3.589  1.00  0.00     0.295 C 
HETATM   13  O   UNL     1      62.045   6.060   4.028  1.00  0.00    -0.259 OA
BRANCH  12  14
HETATM   14  O   UNL     1      63.672   6.916   2.640  1.00  0.00    -0.322 OA
HETATM   15  C   UNL     1      63.396   6.095   1.506  1.00  0.00     0.213 C 
ENDBRANCH  12  14
ENDBRANCH   1  12
TORSDOF 4
ENDMDL
MODEL 5
REMARK VINA RESULT:      -4.3      3.427      5.407
REMARK  4 active torsions:
REMARK  status: ('A' for Active; 'I' for Inactive)
REMARK    1  A    between atoms: C_1  and  C_4 
REMARK    2  A    between atoms: C_2  and  O_5 
REMARK    3  A    between atoms: C_3  and  O_5 
REMARK    4  A    between atoms: C_4  and  O_10 
ROOT
HETATM    1  C   UNL     1      65.136   7.390   5.070  1.00  0.00     0.073 A 
HETATM    2  C   UNL     1      66.456   7.233   5.525  1.00  0.00     0.094 A 
HETATM    3  C   UNL     1      64.711   6.696   3.918  1.00  0.00     0.020 A 
HETATM    4  C   UNL     1      67.323   6.395   4.808  1.00  0.00     0.038 A 
HETATM    5  C   UNL     1      65.580   5.864   3.221  1.00  0.00     0.001 A 
HETATM    6  C   UNL     1      66.891   5.716   3.663  1.00  0.00     0.003 A 
ENDROOT
BRANCH   2   7
HETATM    7  O   UNL     1      66.928   7.649   6.736  1.00  0.00    -0.254 OA
BRANCH   7   8
HETATM    8  C   UNL     1      66.954   6.706   7.804  1.00  0.00     0.530 C 
HETATM    9  F   UNL     1      66.933   7.271   9.029  1.00  0.00    -0.144 F 
HETATM   10  F   UNL     1      65.892   5.882   7.680  1.00  0.00    -0.144 F 
HETATM   11  F   UNL     1      68.073   5.952   7.709  1.00  0.00    -0.144 F 
ENDBRANCH   7   8
ENDBRANCH   2   7
BRANCH   1  12
HETATM   12  C   UNL     1      64.100   8.143   5.826  1.00  0.00     0.295 C 
HETATM   13  O   UNL     1      63.336   7.644   6.633  1.00  0.00    -0.259 OA
BRANCH  12  14
HETATM   14  O   UNL     1      64.164   9.450   5.465  1.00  0.00    -0.322 OA
HETATM   15  C   UNL     1      62.937  10.065   5.076  1.00  0.00     0.213 C 
ENDBRANCH  12  14
ENDBRANCH   1  12
TORSDOF 4
ENDMDL
MODEL 6
REMARK VINA RESULT:      -4.2      2.581      4.241
REMARK  4 active torsions:
REMARK  status: ('A' for Active; 'I' for Inactive)
REMARK    1  A    between atoms: C_1  and  C_4 
REMARK    2  A    between atoms: C_2  and  O_5 
REMARK    3  A    between atoms: C_3  and  O_5 
REMARK    4  A    between atoms: C_4  and  O_10 
ROOT
HETATM    1  C   UNL     1      65.274   7.158   5.357  1.00  0.00     0.073 A 
HETATM    2  C   UNL     1      64.412   7.878   4.512  1.00  0.00     0.094 A 
HETATM    3  C   UNL     1      65.711   5.874   4.973  1.00  0.00     0.020 A 
HETATM    4  C   UNL     1      64.000   7.289   3.308  1.00  0.00     0.038 A 
HETATM    5  C   UNL     1      65.298   5.305   3.773  1.00  0.00     0.001 A 
HETATM    6  C   UNL     1      64.436   6.011   2.940  1.00  0.00     0.003 A 
ENDROOT
BRANCH   2   7
HETATM    7  O   UNL     1      64.103   9.201   4.641  1.00  0.00    -0.254 OA
BRANCH   7   8
HETATM    8  C   UNL     1      62.839   9.541   5.204  1.00  0.00     0.530 C 
HETATM    9  F   UNL     1      61.843   9.617   4.298  1.00  0.00    -0.144 F 
HETATM   10  F   UNL     1      62.518   8.619   6.137  1.00  0.00    -0.144 F 
HETATM   11  F   UNL     1      62.933  10.739   5.826  1.00  0.00    -0.144 F 
ENDBRANCH   7   8
ENDBRANCH   2   7
BRANCH   1  12
HETATM   12  C   UNL     1      65.877   7.738   6.586  1.00  0.00     0.295 C 
HETATM   13  O   UNL     1      66.560   8.747   6.608  1.00  0.00    -0.259 OA
BRANCH  12  14
HETATM   14  O   UNL     1      65.533   6.964   7.646  1.00  0.00    -0.322 OA
HETATM   15  C   UNL     1      66.566   6.677   8.589  1.00  0.00     0.213 C 
ENDBRANCH  12  14
ENDBRANCH   1  12
TORSDOF 4
ENDMDL
MODEL 7
REMARK VINA RESULT:      -4.2      1.827      2.539
REMARK  4 active torsions:
REMARK  status: ('A' for Active; 'I' for Inactive)
REMARK    1  A    between atoms: C_1  and  C_4 
REMARK    2  A    between atoms: C_2  and  O_5 
REMARK    3  A    between atoms: C_3  and  O_5 
REMARK    4  A    between atoms: C_4  and  O_10 
ROOT
HETATM    1  C   UNL     1      63.128   8.834   3.886  1.00  0.00     0.073 A 
HETATM    2  C   UNL     1      62.459   9.313   2.747  1.00  0.00     0.094 A 
HETATM    3  C   UNL     1      63.213   9.646   5.035  1.00  0.00     0.020 A 
HETATM    4  C   UNL     1      61.902  10.600   2.782  1.00  0.00     0.038 A 
HETATM    5  C   UNL     1      62.651  10.918   5.057  1.00  0.00     0.001 A 
HETATM    6  C   UNL     1      61.998  11.399   3.926  1.00  0.00     0.003 A 
ENDROOT
BRANCH   2   7
HETATM    7  O   UNL     1      62.101   8.560   1.667  1.00  0.00    -0.254 OA
BRANCH   7   8
HETATM    8  C   UNL     1      60.777   8.033   1.628  1.00  0.00     0.530 C 
HETATM    9  F   UNL     1      59.937   8.730   0.835  1.00  0.00    -0.144 F 
HETATM   10  F   UNL     1      60.832   6.755   1.196  1.00  0.00    -0.144 F 
HETATM   11  F   UNL     1      60.262   8.022   2.878  1.00  0.00    -0.144 F 
ENDBRANCH   7   8
ENDBRANCH   2   7
BRANCH   1  12
HETATM   12  C   UNL     1      63.634   7.441   4.004  1.00  0.00     0.295 C 
HETATM   13  O   UNL     1      64.782   7.103   3.772  1.00  0.00    -0.259 OA
BRANCH  12  14
HETATM   14  O   UNL     1      62.616   6.640   4.409  1.00  0.00    -0.322 OA
HETATM   15  C   UNL     1      62.730   6.075   5.715  1.00  0.00     0.213 C 
ENDBRANCH  12  14
ENDBRANCH   1  12
TORSDOF 4
ENDMDL
MODEL 8
REMARK VINA RESULT:      -4.1      3.228      4.131
REMARK  4 active torsions:
REMARK  status: ('A' for Active; 'I' for Inactive)
REMARK    1  A    between atoms: C_1  and  C_4 
REMARK    2  A    between atoms: C_2  and  O_5 
REMARK    3  A    between atoms: C_3  and  O_5 
REMARK    4  A    between atoms: C_4  and  O_10 
ROOT
HETATM    1  C   UNL     1      64.092   7.771   4.027  1.00  0.00     0.073 A 
HETATM    2  C   UNL     1      64.817   6.588   3.807  1.00  0.00     0.094 A 
HETATM    3  C   UNL     1      63.088   8.152   3.114  1.00  0.00     0.020 A 
HETATM    4  C   UNL     1      64.526   5.819   2.670  1.00  0.00     0.038 A 
HETATM    5  C   UNL     1      62.807   7.377   1.994  1.00  0.00     0.001 A 
HETATM    6  C   UNL     1      63.531   6.210   1.767  1.00  0.00     0.003 A 
ENDROOT
BRANCH   2   7
HETATM    7  O   UNL     1      65.639   5.985   4.714  1.00  0.00    -0.254 OA
BRANCH   7   8
HETATM    8  C   UNL     1      67.046   6.092   4.517  1.00  0.00     0.530 C 
HETATM    9  F   UNL     1      67.589   5.030   3.887  1.00  0.00    -0.144 F 
HETATM   10  F   UNL     1      67.300   7.207   3.801  1.00  0.00    -0.144 F 
HETATM   11  F   UNL     1      67.657   6.226   5.716  1.00  0.00    -0.144 F 
ENDBRANCH   7   8
ENDBRANCH   2   7
BRANCH   1  12
HETATM   12  C   UNL     1      64.225   8.586   5.264  1.00  0.00     0.295 C 
HETATM   13  O   UNL     1      65.250   9.143   5.616  1.00  0.00    -0.259 OA
BRANCH  12  14
HETATM   14  O   UNL     1      63.030   8.598   5.907  1.00  0.00    -0.322 OA
HETATM   15  C   UNL     1      62.593   7.360   6.467  1.00  0.00     0.213 C 
ENDBRANCH  12  14
ENDBRANCH   1  12
TORSDOF 4
ENDMDL
MODEL 9
REMARK VINA RESULT:      -4.1      2.809      4.471
REMARK  4 active torsions:
REMARK  status: ('A' for Active; 'I' for Inactive)
REMARK    1  A    between atoms: C_1  and  C_4 
REMARK    2  A    between atoms: C_2  and  O_5 
REMARK    3  A    between atoms: C_3  and  O_5 
REMARK    4  A    between atoms: C_4  and  O_10 
ROOT
HETATM    1  C   UNL     1      64.046   6.520   6.198  1.00  0.00     0.073 A 
HETATM    2  C   UNL     1      62.941   7.373   6.034  1.00  0.00     0.094 A 
HETATM    3  C   UNL     1      63.985   5.200   5.706  1.00  0.00     0.020 A 
HETATM    4  C   UNL     1      61.797   6.878   5.390  1.00  0.00     0.038 A 
HETATM    5  C   UNL     1      62.845   4.726   5.065  1.00  0.00     0.001 A 
HETATM    6  C   UNL     1      61.746   5.565   4.911  1.00  0.00     0.003 A 
ENDROOT
BRANCH   2   7
HETATM    7  O   UNL     1      62.946   8.721   6.245  1.00  0.00    -0.254 OA
BRANCH   7   8
HETATM    8  C   UNL     1      63.163   9.573   5.124  1.00  0.00     0.530 C 
HETATM    9  F   UNL     1      62.035   9.888   4.454  1.00  0.00    -0.144 F 
HETATM   10  F   UNL     1      63.755  10.709   5.551  1.00  0.00    -0.144 F 
HETATM   11  F   UNL     1      64.010   8.969   4.259  1.00  0.00    -0.144 F 
ENDBRANCH   7   8
ENDBRANCH   2   7
BRANCH   1  12
HETATM   12  C   UNL     1      65.352   6.979   6.742  1.00  0.00     0.295 C 
HETATM   13  O   UNL     1      66.281   7.376   6.061  1.00  0.00    -0.259 OA
BRANCH  12  14
HETATM   14  O   UNL     1      65.317   6.883   8.095  1.00  0.00    -0.322 OA
HETATM   15  C   UNL     1      66.491   6.376   8.729  1.00  0.00     0.213 C 
ENDBRANCH  12  14
ENDBRANCH   1  12
TORSDOF 4
ENDMDL
