MODEL 1
REMARK VINA RESULT:      -5.0      0.000      0.000
REMARK  2 active torsions:
REMARK  status: ('A' for Active; 'I' for Inactive)
REMARK    1  A    between atoms: C_1  and  O_3 
REMARK    2  A    between atoms: O_3  and  C_6 
ROOT
HETATM    1  N   UNL     1      61.899  11.772   4.058  1.00  0.00    -0.191 NA
HETATM    2  C   UNL     1      62.073  10.805   3.448  1.00  0.00     0.102 C 
HETATM    3  C   UNL     1      62.290   9.606   2.689  1.00  0.00     0.078 A 
HETATM    4  C   UNL     1      62.661   8.392   3.285  1.00  0.00     0.099 A 
HETATM    5  C   UNL     1      62.045   9.656   1.307  1.00  0.00     0.025 A 
HETATM    6  C   UNL     1      62.686   7.228   2.506  1.00  0.00     0.039 A 
HETATM    7  C   UNL     1      62.104   8.497   0.536  1.00  0.00     0.002 A 
HETATM    8  C   UNL     1      62.406   7.279   1.139  1.00  0.00     0.003 A 
ENDROOT
BRANCH   4   9
HETATM    9  O   UNL     1      62.870   8.197   4.621  1.00  0.00    -0.254 OA
BRANCH   9  10
HETATM   10  C   UNL     1      64.210   8.320   5.101  1.00  0.00     0.530 C 
HETATM   11  F   UNL     1      65.138   7.894   4.222  1.00  0.00    -0.144 F 
HETATM   12  F   UNL     1      64.339   7.591   6.232  1.00  0.00    -0.144 F 
HETATM   13  F   UNL     1      64.444   9.614   5.402  1.00  0.00    -0.144 F 
ENDBRANCH   9  10
ENDBRANCH   4   9
TORSDOF 2
ENDMDL
MODEL 2
REMARK VINA RESULT:      -4.9      1.311      1.753
REMARK  2 active torsions:
REMARK  status: ('A' for Active; 'I' for Inactive)
REMARK    1  A    between atoms: C_1  and  O_3 
REMARK    2  A    between atoms: O_3  and  C_6 
ROOT
HETATM    1  N   UNL     1      63.109  11.219   6.431  1.00  0.00    -0.191 NA
HETATM    2  C   UNL     1      62.879  10.796   5.379  1.00  0.00     0.102 C 
HETATM    3  C   UNL     1      62.596  10.273   4.073  1.00  0.00     0.078 A 
HETATM    4  C   UNL     1      62.759   8.917   3.751  1.00  0.00     0.099 A 
HETATM    5  C   UNL     1      62.069  11.156   3.117  1.00  0.00     0.025 A 
HETATM    6  C   UNL     1      62.300   8.450   2.513  1.00  0.00     0.039 A 
HETATM    7  C   UNL     1      61.645  10.685   1.876  1.00  0.00     0.002 A 
HETATM    8  C   UNL     1      61.744   9.328   1.581  1.00  0.00     0.003 A 
ENDROOT
BRANCH   4   9
HETATM    9  O   UNL     1      63.204   7.949   4.606  1.00  0.00    -0.254 OA
BRANCH   9  10
HETATM   10  C   UNL     1      64.583   7.586   4.526  1.00  0.00     0.530 C 
HETATM   11  F   UNL     1      64.921   7.004   3.358  1.00  0.00    -0.144 F 
HETATM   12  F   UNL     1      64.867   6.719   5.524  1.00  0.00    -0.144 F 
HETATM   13  F   UNL     1      65.332   8.694   4.702  1.00  0.00    -0.144 F 
ENDBRANCH   9  10
ENDBRANCH   4   9
TORSDOF 2
ENDMDL
MODEL 3
REMARK VINA RESULT:      -4.8      2.684      3.815
REMARK  2 active torsions:
REMARK  status: ('A' for Active; 'I' for Inactive)
REMARK    1  A    between atoms: C_1  and  O_3 
REMARK    2  A    between atoms: O_3  and  C_6 
ROOT
HETATM    1  N   UNL     1      62.018  11.703   4.671  1.00  0.00    -0.191 NA
HETATM    2  C   UNL     1      62.475  10.652   4.517  1.00  0.00     0.102 C 
HETATM    3  C   UNL     1      63.043   9.347   4.329  1.00  0.00     0.078 A 
HETATM    4  C   UNL     1      62.495   8.406   3.445  1.00  0.00     0.099 A 
HETATM    5  C   UNL     1      64.233   9.050   5.011  1.00  0.00     0.025 A 
HETATM    6  C   UNL     1      63.199   7.222   3.185  1.00  0.00     0.039 A 
HETATM    7  C   UNL     1      64.909   7.855   4.768  1.00  0.00     0.002 A 
HETATM    8  C   UNL     1      64.400   6.950   3.841  1.00  0.00     0.003 A 
ENDROOT
BRANCH   4   9
HETATM    9  O   UNL     1      61.379   8.594   2.680  1.00  0.00    -0.254 OA
BRANCH   9  10
HETATM   10  C   UNL     1      61.547   9.262   1.429  1.00  0.00     0.530 C 
HETATM   11  F   UNL     1      61.480  10.605   1.521  1.00  0.00    -0.144 F 
HETATM   12  F   UNL     1      60.579   8.852   0.579  1.00  0.00    -0.144 F 
HETATM   13  F   UNL     1      62.741   8.913   0.909  1.00  0.00    -0.144 F 
ENDBRANCH   9  10
ENDBRANCH   4   9
TORSDOF 2
ENDMDL
MODEL 4
REMARK VINA RESULT:      -4.8      1.819      2.895
REMARK  2 active torsions:
REMARK  status: ('A' for Active; 'I' for Inactive)
REMARK    1  A    between atoms: C_1  and  O_3 
REMARK    2  A    between atoms: O_3  and  C_6 
ROOT
HETATM    1  N   UNL     1      62.808   6.719   1.092  1.00  0.00    -0.191 NA
HETATM    2  C   UNL     1      62.562   7.720   1.616  1.00  0.00     0.102 C 
HETATM    3  C   UNL     1      62.255   8.962   2.266  1.00  0.00     0.078 A 
HETATM    4  C   UNL     1      62.300   9.118   3.659  1.00  0.00     0.099 A 
HETATM    5  C   UNL     1      61.970  10.070   1.451  1.00  0.00     0.025 A 
HETATM    6  C   UNL     1      62.158  10.399   4.208  1.00  0.00     0.039 A 
HETATM    7  C   UNL     1      61.799  11.335   2.012  1.00  0.00     0.002 A 
HETATM    8  C   UNL     1      61.911  11.502   3.390  1.00  0.00     0.003 A 
ENDROOT
BRANCH   4   9
HETATM    9  O   UNL     1      62.622   8.137   4.555  1.00  0.00    -0.254 OA
BRANCH   9  10
HETATM   10  C   UNL     1      64.003   7.979   4.886  1.00  0.00     0.530 C 
HETATM   11  F   UNL     1      64.717   9.116   4.776  1.00  0.00    -0.144 F 
HETATM   12  F   UNL     1      64.549   7.060   4.058  1.00  0.00    -0.144 F 
HETATM   13  F   UNL     1      64.094   7.517   6.149  1.00  0.00    -0.144 F 
ENDBRANCH   9  10
ENDBRANCH   4   9
TORSDOF 2
ENDMDL
MODEL 5
REMARK VINA RESULT:      -4.8      2.002      2.468
REMARK  2 active torsions:
REMARK  status: ('A' for Active; 'I' for Inactive)
REMARK    1  A    between atoms: C_1  and  O_3 
REMARK    2  A    between atoms: O_3  and  C_6 
ROOT
HETATM    1  N   UNL     1      63.140  11.160   6.121  1.00  0.00    -0.191 NA
HETATM    2  C   UNL     1      63.309  10.230   5.454  1.00  0.00     0.102 C 
HETATM    3  C   UNL     1      63.520   9.078   4.624  1.00  0.00     0.078 A 
HETATM    4  C   UNL     1      64.329   8.002   5.018  1.00  0.00     0.099 A 
HETATM    5  C   UNL     1      62.823   9.016   3.407  1.00  0.00     0.025 A 
HETATM    6  C   UNL     1      64.350   6.841   4.235  1.00  0.00     0.039 A 
HETATM    7  C   UNL     1      62.876   7.867   2.620  1.00  0.00     0.002 A 
HETATM    8  C   UNL     1      63.625   6.772   3.044  1.00  0.00     0.003 A 
ENDROOT
BRANCH   4   9
HETATM    9  O   UNL     1      65.010   7.914   6.200  1.00  0.00    -0.254 OA
BRANCH   9  10
HETATM   10  C   UNL     1      66.435   7.999   6.144  1.00  0.00     0.530 C 
HETATM   11  F   UNL     1      66.908   8.327   4.925  1.00  0.00    -0.144 F 
HETATM   12  F   UNL     1      66.958   6.800   6.487  1.00  0.00    -0.144 F 
HETATM   13  F   UNL     1      66.849   8.914   7.043  1.00  0.00    -0.144 F 
ENDBRANCH   9  10
ENDBRANCH   4   9
TORSDOF 2
ENDMDL
MODEL 6
REMARK VINA RESULT:      -4.7      1.718      2.201
REMARK  2 active torsions:
REMARK  status: ('A' for Active; 'I' for Inactive)
REMARK    1  A    between atoms: C_1  and  O_3 
REMARK    2  A    between atoms: O_3  and  C_6 
ROOT
HETATM    1  N   UNL     1      63.029  11.111   6.269  1.00  0.00    -0.191 NA
HETATM    2  C   UNL     1      62.870  10.630   5.229  1.00  0.00     0.102 C 
HETATM    3  C   UNL     1      62.675  10.036   3.937  1.00  0.00     0.078 A 
HETATM    4  C   UNL     1      63.036   8.710   3.654  1.00  0.00     0.099 A 
HETATM    5  C   UNL     1      62.030  10.806   2.956  1.00  0.00     0.025 A 
HETATM    6  C   UNL     1      62.658   8.147   2.428  1.00  0.00     0.039 A 
HETATM    7  C   UNL     1      61.687  10.244   1.728  1.00  0.00     0.002 A 
HETATM    8  C   UNL     1      61.985   8.908   1.471  1.00  0.00     0.003 A 
ENDROOT
BRANCH   4   9
HETATM    9  O   UNL     1      63.612   7.840   4.536  1.00  0.00    -0.254 OA
BRANCH   9  10
HETATM   10  C   UNL     1      62.740   7.110   5.401  1.00  0.00     0.530 C 
HETATM   11  F   UNL     1      61.440   7.206   5.062  1.00  0.00    -0.144 F 
HETATM   12  F   UNL     1      62.880   7.578   6.661  1.00  0.00    -0.144 F 
HETATM   13  F   UNL     1      63.107   5.812   5.388  1.00  0.00    -0.144 F 
ENDBRANCH   9  10
ENDBRANCH   4   9
TORSDOF 2
ENDMDL
MODEL 7
REMARK VINA RESULT:      -4.4      2.854      3.785
REMARK  2 active torsions:
REMARK  status: ('A' for Active; 'I' for Inactive)
REMARK    1  A    between atoms: C_1  and  O_3 
REMARK    2  A    between atoms: O_3  and  C_6 
ROOT
HETATM    1  N   UNL     1      63.079   7.713   6.479  1.00  0.00    -0.191 NA
HETATM    2  C   UNL     1      62.862   8.357   5.543  1.00  0.00     0.102 C 
HETATM    3  C   UNL     1      62.596   9.159   4.383  1.00  0.00     0.078 A 
HETATM    4  C   UNL     1      62.491   8.612   3.096  1.00  0.00     0.099 A 
HETATM    5  C   UNL     1      62.363  10.530   4.577  1.00  0.00     0.025 A 
HETATM    6  C   UNL     1      62.058   9.426   2.041  1.00  0.00     0.039 A 
HETATM    7  C   UNL     1      61.965  11.337   3.514  1.00  0.00     0.002 A 
HETATM    8  C   UNL     1      61.794  10.781   2.249  1.00  0.00     0.003 A 
ENDROOT
BRANCH   4   9
HETATM    9  O   UNL     1      62.634   7.289   2.783  1.00  0.00    -0.254 OA
BRANCH   9  10
HETATM   10  C   UNL     1      61.467   6.468   2.856  1.00  0.00     0.530 C 
HETATM   11  F   UNL     1      60.395   7.099   3.374  1.00  0.00    -0.144 F 
HETATM   12  F   UNL     1      61.735   5.393   3.630  1.00  0.00    -0.144 F 
HETATM   13  F   UNL     1      61.168   6.032   1.615  1.00  0.00    -0.144 F 
ENDBRANCH   9  10
ENDBRANCH   4   9
TORSDOF 2
ENDMDL
MODEL 8
REMARK VINA RESULT:      -4.4      2.044      3.079
REMARK  2 active torsions:
REMARK  status: ('A' for Active; 'I' for Inactive)
REMARK    1  A    between atoms: C_1  and  O_3 
REMARK    2  A    between atoms: O_3  and  C_6 
ROOT
HETATM    1  N   UNL     1      63.341   6.417   2.101  1.00  0.00    -0.191 NA
HETATM    2  C   UNL     1      63.089   7.390   2.675  1.00  0.00     0.102 C 
HETATM    3  C   UNL     1      62.772   8.596   3.385  1.00  0.00     0.078 A 
HETATM    4  C   UNL     1      63.076   8.774   4.743  1.00  0.00     0.099 A 
HETATM    5  C   UNL     1      62.202   9.651   2.656  1.00  0.00     0.025 A 
HETATM    6  C   UNL     1      62.895  10.036   5.323  1.00  0.00     0.039 A 
HETATM    7  C   UNL     1      61.997  10.894   3.253  1.00  0.00     0.002 A 
HETATM    8  C   UNL     1      62.362  11.091   4.582  1.00  0.00     0.003 A 
ENDROOT
BRANCH   4   9
HETATM    9  O   UNL     1      63.684   7.851   5.546  1.00  0.00    -0.254 OA
BRANCH   9  10
HETATM   10  C   UNL     1      65.104   7.732   5.451  1.00  0.00     0.530 C 
HETATM   11  F   UNL     1      65.668   8.645   4.636  1.00  0.00    -0.144 F 
HETATM   12  F   UNL     1      65.410   6.503   4.978  1.00  0.00    -0.144 F 
HETATM   13  F   UNL     1      65.631   7.853   6.686  1.00  0.00    -0.144 F 
ENDBRANCH   9  10
ENDBRANCH   4   9
TORSDOF 2
ENDMDL
MODEL 9
REMARK VINA RESULT:      -4.4      2.435      3.423
REMARK  2 active torsions:
REMARK  status: ('A' for Active; 'I' for Inactive)
REMARK    1  A    between atoms: C_1  and  O_3 
REMARK    2  A    between atoms: O_3  and  C_6 
ROOT
HETATM    1  N   UNL     1      64.019   6.286   2.416  1.00  0.00    -0.191 NA
HETATM    2  C   UNL     1      63.650   7.246   2.945  1.00  0.00     0.102 C 
HETATM    3  C   UNL     1      63.189   8.437   3.601  1.00  0.00     0.078 A 
HETATM    4  C   UNL     1      63.652   8.829   4.866  1.00  0.00     0.099 A 
HETATM    5  C   UNL     1      62.296   9.262   2.900  1.00  0.00     0.025 A 
HETATM    6  C   UNL     1      63.290  10.086   5.366  1.00  0.00     0.039 A 
HETATM    7  C   UNL     1      61.918  10.498   3.422  1.00  0.00     0.002 A 
HETATM    8  C   UNL     1      62.430  10.918   4.647  1.00  0.00     0.003 A 
ENDROOT
BRANCH   4   9
HETATM    9  O   UNL     1      64.564   8.147   5.622  1.00  0.00    -0.254 OA
BRANCH   9  10
HETATM   10  C   UNL     1      64.086   7.036   6.382  1.00  0.00     0.530 C 
HETATM   11  F   UNL     1      62.775   7.113   6.683  1.00  0.00    -0.144 F 
HETATM   12  F   UNL     1      64.779   6.968   7.541  1.00  0.00    -0.144 F 
HETATM   13  F   UNL     1      64.316   5.905   5.685  1.00  0.00    -0.144 F 
ENDBRANCH   9  10
ENDBRANCH   4   9
TORSDOF 2
ENDMDL
