MODEL 1
REMARK VINA RESULT:      -5.2      0.000      0.000
REMARK  3 active torsions:
REMARK  status: ('A' for Active; 'I' for Inactive)
REMARK    1  A    between atoms: C_1  and  C_2 
REMARK    2  A    between atoms: C_1  and  O_10 
REMARK    3  A    between atoms: C_5  and  N_9 
ROOT
HETATM    1  C   UNL     1      63.049   8.814   4.754  1.00  0.00     0.040 A 
HETATM    2  C   UNL     1      62.746   8.493   3.425  1.00  0.00     0.026 A 
HETATM    3  C   UNL     1      62.215   9.460   2.549  1.00  0.00    -0.035 A 
HETATM    4  C   UNL     1      61.946  10.758   3.025  1.00  0.00     0.031 A 
HETATM    5  C   UNL     1      62.813  10.114   5.209  1.00  0.00     0.020 A 
HETATM    6  C   UNL     1      62.287  11.077   4.344  1.00  0.00     0.030 A 
HETATM    7  C   UNL     1      61.939   9.080   1.119  1.00  0.00     0.050 C 
ENDROOT
BRANCH   1   8
HETATM    8  C   UNL     1      63.656   7.841   5.704  1.00  0.00     0.292 C 
HETATM    9  O   UNL     1      63.174   7.576   6.793  1.00  0.00    -0.259 OA
BRANCH   8  10
HETATM   10  O   UNL     1      64.804   7.321   5.198  1.00  0.00    -0.323 OA
HETATM   11  C   UNL     1      65.988   8.019   5.588  1.00  0.00     0.213 C 
ENDBRANCH   8  10
ENDBRANCH   1   8
BRANCH   4  12
HETATM   12  N   UNL     1      61.573  11.795   2.157  1.00  0.00    -0.399 N 
HETATM   13  H   UNL     1      61.003  12.529   2.484  1.00  0.00     0.156 HD
HETATM   14  H   UNL     1      61.881  11.789   1.222  1.00  0.00     0.156 HD
ENDBRANCH   4  12
TORSDOF 3
ENDMDL
MODEL 2
REMARK VINA RESULT:      -4.5      1.470      2.457
REMARK  3 active torsions:
REMARK  status: ('A' for Active; 'I' for Inactive)
REMARK    1  A    between atoms: C_1  and  C_2 
REMARK    2  A    between atoms: C_1  and  O_10 
REMARK    3  A    between atoms: C_5  and  N_9 
ROOT
HETATM    1  C   UNL     1      64.395   8.427   4.908  1.00  0.00     0.040 A 
HETATM    2  C   UNL     1      63.751   9.669   4.984  1.00  0.00     0.026 A 
HETATM    3  C   UNL     1      62.700   9.994   4.105  1.00  0.00    -0.035 A 
HETATM    4  C   UNL     1      62.317   9.076   3.107  1.00  0.00     0.031 A 
HETATM    5  C   UNL     1      63.986   7.508   3.939  1.00  0.00     0.020 A 
HETATM    6  C   UNL     1      62.943   7.825   3.064  1.00  0.00     0.030 A 
HETATM    7  C   UNL     1      62.011  11.324   4.247  1.00  0.00     0.050 C 
ENDROOT
BRANCH   1   8
HETATM    8  C   UNL     1      65.478   8.018   5.845  1.00  0.00     0.292 C 
HETATM    9  O   UNL     1      65.273   7.405   6.881  1.00  0.00    -0.259 OA
BRANCH   8  10
HETATM   10  O   UNL     1      66.691   8.433   5.397  1.00  0.00    -0.323 OA
HETATM   11  C   UNL     1      67.714   7.438   5.460  1.00  0.00     0.213 C 
ENDBRANCH   8  10
ENDBRANCH   1   8
BRANCH   4  12
HETATM   12  N   UNL     1      61.176   9.285   2.318  1.00  0.00    -0.399 N 
HETATM   13  H   UNL     1      60.344   8.797   2.518  1.00  0.00     0.156 HD
HETATM   14  H   UNL     1      61.208   9.918   1.565  1.00  0.00     0.156 HD
ENDBRANCH   4  12
TORSDOF 3
ENDMDL
MODEL 3
REMARK VINA RESULT:      -4.5      1.377      1.583
REMARK  3 active torsions:
REMARK  status: ('A' for Active; 'I' for Inactive)
REMARK    1  A    between atoms: C_1  and  C_2 
REMARK    2  A    between atoms: C_1  and  O_10 
REMARK    3  A    between atoms: C_5  and  N_9 
ROOT
HETATM    1  C   UNL     1      63.912   8.650   4.804  1.00  0.00     0.040 A 
HETATM    2  C   UNL     1      63.718   7.945   3.609  1.00  0.00     0.026 A 
HETATM    3  C   UNL     1      62.764   8.369   2.664  1.00  0.00    -0.035 A 
HETATM    4  C   UNL     1      61.964   9.496   2.938  1.00  0.00     0.031 A 
HETATM    5  C   UNL     1      63.139   9.787   5.053  1.00  0.00     0.020 A 
HETATM    6  C   UNL     1      62.192  10.214   4.118  1.00  0.00     0.030 A 
HETATM    7  C   UNL     1      62.615   7.603   1.378  1.00  0.00     0.050 C 
ENDROOT
BRANCH   1   8
HETATM    8  C   UNL     1      64.939   8.269   5.811  1.00  0.00     0.292 C 
HETATM    9  O   UNL     1      65.800   9.035   6.215  1.00  0.00    -0.259 OA
BRANCH   8  10
HETATM   10  O   UNL     1      64.791   6.974   6.190  1.00  0.00    -0.323 OA
HETATM   11  C   UNL     1      65.427   6.646   7.427  1.00  0.00     0.213 C 
ENDBRANCH   8  10
ENDBRANCH   1   8
BRANCH   4  12
HETATM   12  N   UNL     1      61.120  10.051   1.966  1.00  0.00    -0.399 N 
HETATM   13  H   UNL     1      61.272   9.855   1.013  1.00  0.00     0.156 HD
HETATM   14  H   UNL     1      60.376  10.637   2.236  1.00  0.00     0.156 HD
ENDBRANCH   4  12
TORSDOF 3
ENDMDL
MODEL 4
REMARK VINA RESULT:      -4.5      1.498      2.121
REMARK  3 active torsions:
REMARK  status: ('A' for Active; 'I' for Inactive)
REMARK    1  A    between atoms: C_1  and  C_2 
REMARK    2  A    between atoms: C_1  and  O_10 
REMARK    3  A    between atoms: C_5  and  N_9 
ROOT
HETATM    1  C   UNL     1      62.610   8.394   4.567  1.00  0.00     0.040 A 
HETATM    2  C   UNL     1      62.615   9.599   3.852  1.00  0.00     0.026 A 
HETATM    3  C   UNL     1      61.857   9.744   2.674  1.00  0.00    -0.035 A 
HETATM    4  C   UNL     1      61.115   8.653   2.182  1.00  0.00     0.031 A 
HETATM    5  C   UNL     1      61.843   7.326   4.093  1.00  0.00     0.020 A 
HETATM    6  C   UNL     1      61.089   7.466   2.925  1.00  0.00     0.030 A 
HETATM    7  C   UNL     1      61.862  11.068   1.958  1.00  0.00     0.050 C 
ENDROOT
BRANCH   1   8
HETATM    8  C   UNL     1      63.356   8.206   5.842  1.00  0.00     0.292 C 
HETATM    9  O   UNL     1      62.905   7.599   6.800  1.00  0.00    -0.259 OA
BRANCH   8  10
HETATM   10  O   UNL     1      64.571   8.810   5.787  1.00  0.00    -0.323 OA
HETATM   11  C   UNL     1      65.651   7.930   5.469  1.00  0.00     0.213 C 
ENDBRANCH   8  10
ENDBRANCH   1   8
BRANCH   4  12
HETATM   12  N   UNL     1      60.221   8.795   1.111  1.00  0.00    -0.399 N 
HETATM   13  H   UNL     1      59.397   9.322   1.225  1.00  0.00     0.156 HD
HETATM   14  H   UNL     1      60.418   8.369   0.246  1.00  0.00     0.156 HD
ENDBRANCH   4  12
TORSDOF 3
ENDMDL
MODEL 5
REMARK VINA RESULT:      -4.4      2.866      4.356
REMARK  3 active torsions:
REMARK  status: ('A' for Active; 'I' for Inactive)
REMARK    1  A    between atoms: C_1  and  C_2 
REMARK    2  A    between atoms: C_1  and  O_10 
REMARK    3  A    between atoms: C_5  and  N_9 
ROOT
HETATM    1  C   UNL     1      62.166   9.242   2.381  1.00  0.00     0.040 A 
HETATM    2  C   UNL     1      63.018   8.568   3.265  1.00  0.00     0.026 A 
HETATM    3  C   UNL     1      63.426   9.165   4.474  1.00  0.00    -0.035 A 
HETATM    4  C   UNL     1      63.007  10.474   4.782  1.00  0.00     0.031 A 
HETATM    5  C   UNL     1      61.725  10.527   2.710  1.00  0.00     0.020 A 
HETATM    6  C   UNL     1      62.127  11.123   3.908  1.00  0.00     0.030 A 
HETATM    7  C   UNL     1      64.312   8.389   5.411  1.00  0.00     0.050 C 
ENDROOT
BRANCH   1   8
HETATM    8  C   UNL     1      61.668   8.636   1.116  1.00  0.00     0.292 C 
HETATM    9  O   UNL     1      62.401   8.296   0.200  1.00  0.00    -0.259 OA
BRANCH   8  10
HETATM   10  O   UNL     1      60.314   8.536   1.124  1.00  0.00    -0.323 OA
HETATM   11  C   UNL     1      59.810   7.441   1.892  1.00  0.00     0.213 C 
ENDBRANCH   8  10
ENDBRANCH   1   8
BRANCH   4  12
HETATM   12  N   UNL     1      63.251  11.046   6.039  1.00  0.00    -0.399 N 
HETATM   13  H   UNL     1      63.406  10.468   6.821  1.00  0.00     0.156 HD
HETATM   14  H   UNL     1      63.268  12.025   6.139  1.00  0.00     0.156 HD
ENDBRANCH   4  12
TORSDOF 3
ENDMDL
MODEL 6
REMARK VINA RESULT:      -4.2      2.614      3.344
REMARK  3 active torsions:
REMARK  status: ('A' for Active; 'I' for Inactive)
REMARK    1  A    between atoms: C_1  and  C_2 
REMARK    2  A    between atoms: C_1  and  O_10 
REMARK    3  A    between atoms: C_5  and  N_9 
ROOT
HETATM    1  C   UNL     1      61.770   9.592   3.491  1.00  0.00     0.040 A 
HETATM    2  C   UNL     1      61.006   8.437   3.704  1.00  0.00     0.026 A 
HETATM    3  C   UNL     1      60.548   7.663   2.620  1.00  0.00    -0.035 A 
HETATM    4  C   UNL     1      60.825   8.075   1.302  1.00  0.00     0.031 A 
HETATM    5  C   UNL     1      62.071   9.976   2.182  1.00  0.00     0.020 A 
HETATM    6  C   UNL     1      61.620   9.210   1.103  1.00  0.00     0.030 A 
HETATM    7  C   UNL     1      59.763   6.409   2.896  1.00  0.00     0.050 C 
ENDROOT
BRANCH   1   8
HETATM    8  C   UNL     1      62.317  10.417   4.604  1.00  0.00     0.292 C 
HETATM    9  O   UNL     1      62.211  11.632   4.654  1.00  0.00    -0.259 OA
BRANCH   8  10
HETATM   10  O   UNL     1      62.950   9.638   5.519  1.00  0.00    -0.323 OA
HETATM   11  C   UNL     1      64.204   9.115   5.080  1.00  0.00     0.213 C 
ENDBRANCH   8  10
ENDBRANCH   1   8
BRANCH   4  12
HETATM   12  N   UNL     1      60.534   7.257   0.200  1.00  0.00    -0.399 N 
HETATM   13  H   UNL     1      61.265   6.826  -0.299  1.00  0.00     0.156 HD
HETATM   14  H   UNL     1      59.599   7.115  -0.073  1.00  0.00     0.156 HD
ENDBRANCH   4  12
TORSDOF 3
ENDMDL
MODEL 7
REMARK VINA RESULT:      -4.1      1.679      2.782
REMARK  3 active torsions:
REMARK  status: ('A' for Active; 'I' for Inactive)
REMARK    1  A    between atoms: C_1  and  C_2 
REMARK    2  A    between atoms: C_1  and  O_10 
REMARK    3  A    between atoms: C_5  and  N_9 
ROOT
HETATM    1  C   UNL     1      62.748   7.836   2.962  1.00  0.00     0.040 A 
HETATM    2  C   UNL     1      62.753   8.832   3.948  1.00  0.00     0.026 A 
HETATM    3  C   UNL     1      62.375  10.154   3.643  1.00  0.00    -0.035 A 
HETATM    4  C   UNL     1      62.025  10.492   2.321  1.00  0.00     0.031 A 
HETATM    5  C   UNL     1      62.366   8.171   1.660  1.00  0.00     0.020 A 
HETATM    6  C   UNL     1      61.988   9.481   1.353  1.00  0.00     0.030 A 
HETATM    7  C   UNL     1      62.358  11.182   4.742  1.00  0.00     0.050 C 
ENDROOT
BRANCH   1   8
HETATM    8  C   UNL     1      63.093   6.416   3.244  1.00  0.00     0.292 C 
HETATM    9  O   UNL     1      62.506   5.470   2.744  1.00  0.00    -0.259 OA
BRANCH   8  10
HETATM   10  O   UNL     1      64.118   6.332   4.131  1.00  0.00    -0.323 OA
HETATM   11  C   UNL     1      65.410   6.224   3.529  1.00  0.00     0.213 C 
ENDBRANCH   8  10
ENDBRANCH   1   8
BRANCH   4  12
HETATM   12  N   UNL     1      61.487  11.748   2.003  1.00  0.00    -0.399 N 
HETATM   13  H   UNL     1      62.058  12.438   1.594  1.00  0.00     0.156 HD
HETATM   14  H   UNL     1      60.539  11.938   2.188  1.00  0.00     0.156 HD
ENDBRANCH   4  12
TORSDOF 3
ENDMDL
MODEL 8
REMARK VINA RESULT:      -4.1      2.296      2.979
REMARK  3 active torsions:
REMARK  status: ('A' for Active; 'I' for Inactive)
REMARK    1  A    between atoms: C_1  and  C_2 
REMARK    2  A    between atoms: C_1  and  O_10 
REMARK    3  A    between atoms: C_5  and  N_9 
ROOT
HETATM    1  C   UNL     1      63.970   8.227   4.155  1.00  0.00     0.040 A 
HETATM    2  C   UNL     1      62.996   8.900   3.406  1.00  0.00     0.026 A 
HETATM    3  C   UNL     1      62.438   8.315   2.253  1.00  0.00    -0.035 A 
HETATM    4  C   UNL     1      62.893   7.054   1.821  1.00  0.00     0.031 A 
HETATM    5  C   UNL     1      64.391   6.961   3.741  1.00  0.00     0.020 A 
HETATM    6  C   UNL     1      63.840   6.376   2.598  1.00  0.00     0.030 A 
HETATM    7  C   UNL     1      61.368   9.058   1.500  1.00  0.00     0.050 C 
ENDROOT
BRANCH   1   8
HETATM    8  C   UNL     1      64.554   8.783   5.408  1.00  0.00     0.292 C 
HETATM    9  O   UNL     1      64.472   9.959   5.723  1.00  0.00    -0.259 OA
BRANCH   8  10
HETATM   10  O   UNL     1      65.190   7.815   6.117  1.00  0.00    -0.323 OA
HETATM   11  C   UNL     1      66.525   8.149   6.503  1.00  0.00     0.213 C 
ENDBRANCH   8  10
ENDBRANCH   1   8
BRANCH   4  12
HETATM   12  N   UNL     1      62.258   6.362   0.779  1.00  0.00    -0.399 N 
HETATM   13  H   UNL     1      62.645   6.375  -0.127  1.00  0.00     0.156 HD
HETATM   14  H   UNL     1      61.427   5.864   0.954  1.00  0.00     0.156 HD
ENDBRANCH   4  12
TORSDOF 3
ENDMDL
MODEL 9
REMARK VINA RESULT:      -4.0      3.156      4.899
REMARK  3 active torsions:
REMARK  status: ('A' for Active; 'I' for Inactive)
REMARK    1  A    between atoms: C_1  and  C_2 
REMARK    2  A    between atoms: C_1  and  O_10 
REMARK    3  A    between atoms: C_5  and  N_9 
ROOT
HETATM    1  C   UNL     1      63.187   8.745   4.796  1.00  0.00     0.040 A 
HETATM    2  C   UNL     1      64.578   8.799   4.957  1.00  0.00     0.026 A 
HETATM    3  C   UNL     1      65.252   7.851   5.750  1.00  0.00    -0.035 A 
HETATM    4  C   UNL     1      64.517   6.857   6.426  1.00  0.00     0.031 A 
HETATM    5  C   UNL     1      62.468   7.736   5.441  1.00  0.00     0.020 A 
HETATM    6  C   UNL     1      63.132   6.792   6.228  1.00  0.00     0.030 A 
HETATM    7  C   UNL     1      66.751   7.924   5.864  1.00  0.00     0.050 C 
ENDROOT
BRANCH   1   8
HETATM    8  C   UNL     1      62.435   9.695   3.931  1.00  0.00     0.292 C 
HETATM    9  O   UNL     1      61.893  10.704   4.354  1.00  0.00    -0.259 OA
BRANCH   8  10
HETATM   10  O   UNL     1      62.426   9.274   2.640  1.00  0.00    -0.323 OA
HETATM   11  C   UNL     1      61.889  10.221   1.715  1.00  0.00     0.213 C 
ENDBRANCH   8  10
ENDBRANCH   1   8
BRANCH   4  12
HETATM   12  N   UNL     1      65.152   5.799   7.091  1.00  0.00    -0.399 N 
HETATM   13  H   UNL     1      64.618   5.146   7.599  1.00  0.00     0.156 HD
HETATM   14  H   UNL     1      66.132   5.709   7.050  1.00  0.00     0.156 HD
ENDBRANCH   4  12
TORSDOF 3
ENDMDL
