MODEL 1
REMARK VINA RESULT:      -4.9      0.000      0.000
REMARK  1 active torsions:
REMARK  status: ('A' for Active; 'I' for Inactive)
REMARK    1  A    between atoms: C_4  and  N_7 
ROOT
HETATM    1  N   UNL     1      63.338   7.281   6.627  1.00  0.00    -0.191 NA
HETATM    2  C   UNL     1      62.719   9.058   4.839  1.00  0.00     0.070 A 
HETATM    3  C   UNL     1      63.076   8.077   5.823  1.00  0.00     0.101 C 
HETATM    4  C   UNL     1      62.612  10.421   5.172  1.00  0.00     0.047 A 
HETATM    5  C   UNL     1      62.310  11.333   4.148  1.00  0.00     0.037 A 
HETATM    6  C   UNL     1      62.441   8.624   3.535  1.00  0.00     0.025 A 
HETATM    7  C   UNL     1      62.018  10.904   2.844  1.00  0.00    -0.060 A 
HETATM    8  C   UNL     1      62.084   9.541   2.546  1.00  0.00     0.008 A 
HETATM    9  C   UNL     1      61.625  11.885   1.780  1.00  0.00     0.048 C 
ENDROOT
BRANCH   4  10
HETATM   10  N   UNL     1      63.011  10.930   6.421  1.00  0.00    -0.398 N 
HETATM   11  H   UNL     1      62.446  11.588   6.888  1.00  0.00     0.156 HD
HETATM   12  H   UNL     1      63.855  10.629   6.829  1.00  0.00     0.156 HD
ENDBRANCH   4  10
TORSDOF 1
ENDMDL
MODEL 2
REMARK VINA RESULT:      -4.8      1.821      2.957
REMARK  1 active torsions:
REMARK  status: ('A' for Active; 'I' for Inactive)
REMARK    1  A    between atoms: C_4  and  N_7 
ROOT
HETATM    1  N   UNL     1      63.147  11.004   6.085  1.00  0.00    -0.191 NA
HETATM    2  C   UNL     1      62.712   9.760   3.849  1.00  0.00     0.070 A 
HETATM    3  C   UNL     1      62.966  10.452   5.080  1.00  0.00     0.101 C 
HETATM    4  C   UNL     1      61.990  10.366   2.805  1.00  0.00     0.047 A 
HETATM    5  C   UNL     1      61.822   9.650   1.609  1.00  0.00     0.037 A 
HETATM    6  C   UNL     1      63.173   8.441   3.719  1.00  0.00     0.025 A 
HETATM    7  C   UNL     1      62.269   8.326   1.477  1.00  0.00    -0.060 A 
HETATM    8  C   UNL     1      62.943   7.727   2.543  1.00  0.00     0.008 A 
HETATM    9  C   UNL     1      62.017   7.551   0.217  1.00  0.00     0.048 C 
ENDROOT
BRANCH   4  10
HETATM   10  N   UNL     1      61.626  11.725   2.825  1.00  0.00    -0.398 N 
HETATM   11  H   UNL     1      62.035  12.335   3.481  1.00  0.00     0.156 HD
HETATM   12  H   UNL     1      60.962  12.066   2.183  1.00  0.00     0.156 HD
ENDBRANCH   4  10
TORSDOF 1
ENDMDL
MODEL 3
REMARK VINA RESULT:      -4.8      1.221      2.801
REMARK  1 active torsions:
REMARK  status: ('A' for Active; 'I' for Inactive)
REMARK    1  A    between atoms: C_4  and  N_7 
ROOT
HETATM    1  N   UNL     1      63.180  11.385   6.486  1.00  0.00    -0.191 NA
HETATM    2  C   UNL     1      62.709  10.180   4.235  1.00  0.00     0.070 A 
HETATM    3  C   UNL     1      62.956  10.841   5.485  1.00  0.00     0.101 C 
HETATM    4  C   UNL     1      63.191   8.882   3.988  1.00  0.00     0.047 A 
HETATM    5  C   UNL     1      62.869   8.275   2.764  1.00  0.00     0.037 A 
HETATM    6  C   UNL     1      62.002  10.874   3.242  1.00  0.00     0.025 A 
HETATM    7  C   UNL     1      62.174   8.968   1.761  1.00  0.00    -0.060 A 
HETATM    8  C   UNL     1      61.745  10.274   2.009  1.00  0.00     0.008 A 
HETATM    9  C   UNL     1      61.902   8.330   0.431  1.00  0.00     0.048 C 
ENDROOT
BRANCH   4  10
HETATM   10  N   UNL     1      63.783   8.089   4.989  1.00  0.00    -0.398 N 
HETATM   11  H   UNL     1      63.350   7.252   5.273  1.00  0.00     0.156 HD
HETATM   12  H   UNL     1      64.629   8.372   5.405  1.00  0.00     0.156 HD
ENDBRANCH   4  10
TORSDOF 1
ENDMDL
MODEL 4
REMARK VINA RESULT:      -4.4      1.622      1.960
REMARK  1 active torsions:
REMARK  status: ('A' for Active; 'I' for Inactive)
REMARK    1  A    between atoms: C_4  and  N_7 
ROOT
HETATM    1  N   UNL     1      65.822   7.972   6.568  1.00  0.00    -0.191 NA
HETATM    2  C   UNL     1      64.097   8.435   4.684  1.00  0.00     0.070 A 
HETATM    3  C   UNL     1      65.061   8.187   5.717  1.00  0.00     0.101 C 
HETATM    4  C   UNL     1      63.223   9.536   4.749  1.00  0.00     0.047 A 
HETATM    5  C   UNL     1      62.340   9.748   3.679  1.00  0.00     0.037 A 
HETATM    6  C   UNL     1      64.017   7.530   3.615  1.00  0.00     0.025 A 
HETATM    7  C   UNL     1      62.246   8.840   2.613  1.00  0.00    -0.060 A 
HETATM    8  C   UNL     1      63.090   7.727   2.591  1.00  0.00     0.008 A 
HETATM    9  C   UNL     1      61.245   9.043   1.514  1.00  0.00     0.048 C 
ENDROOT
BRANCH   4  10
HETATM   10  N   UNL     1      63.349  10.547   5.719  1.00  0.00    -0.398 N 
HETATM   11  H   UNL     1      62.998  11.449   5.539  1.00  0.00     0.156 HD
HETATM   12  H   UNL     1      63.788  10.353   6.579  1.00  0.00     0.156 HD
ENDBRANCH   4  10
TORSDOF 1
ENDMDL
MODEL 5
REMARK VINA RESULT:      -4.3      1.994      3.724
REMARK  1 active torsions:
REMARK  status: ('A' for Active; 'I' for Inactive)
REMARK    1  A    between atoms: C_4  and  N_7 
ROOT
HETATM    1  N   UNL     1      61.879  11.947   4.096  1.00  0.00    -0.191 NA
HETATM    2  C   UNL     1      62.561   9.561   3.336  1.00  0.00     0.070 A 
HETATM    3  C   UNL     1      62.172  10.874   3.762  1.00  0.00     0.101 C 
HETATM    4  C   UNL     1      63.418   8.763   4.117  1.00  0.00     0.047 A 
HETATM    5  C   UNL     1      63.718   7.469   3.664  1.00  0.00     0.037 A 
HETATM    6  C   UNL     1      62.096   9.096   2.097  1.00  0.00     0.025 A 
HETATM    7  C   UNL     1      63.266   7.003   2.419  1.00  0.00    -0.060 A 
HETATM    8  C   UNL     1      62.454   7.829   1.638  1.00  0.00     0.008 A 
HETATM    9  C   UNL     1      63.655   5.644   1.918  1.00  0.00     0.048 C 
ENDROOT
BRANCH   4  10
HETATM   10  N   UNL     1      63.803   9.118   5.422  1.00  0.00    -0.398 N 
HETATM   11  H   UNL     1      63.639  10.031   5.753  1.00  0.00     0.156 HD
HETATM   12  H   UNL     1      64.236   8.453   6.006  1.00  0.00     0.156 HD
ENDBRANCH   4  10
TORSDOF 1
ENDMDL
MODEL 6
REMARK VINA RESULT:      -4.3      1.470      1.692
REMARK  1 active torsions:
REMARK  status: ('A' for Active; 'I' for Inactive)
REMARK    1  A    between atoms: C_4  and  N_7 
ROOT
HETATM    1  N   UNL     1      63.334   5.595   4.257  1.00  0.00    -0.191 NA
HETATM    2  C   UNL     1      62.718   7.988   3.461  1.00  0.00     0.070 A 
HETATM    3  C   UNL     1      63.073   6.668   3.897  1.00  0.00     0.101 C 
HETATM    4  C   UNL     1      62.609   9.054   4.372  1.00  0.00     0.047 A 
HETATM    5  C   UNL     1      62.308  10.330   3.870  1.00  0.00     0.037 A 
HETATM    6  C   UNL     1      62.444   8.189   2.100  1.00  0.00     0.025 A 
HETATM    7  C   UNL     1      62.021  10.536   2.512  1.00  0.00    -0.060 A 
HETATM    8  C   UNL     1      62.089   9.454   1.631  1.00  0.00     0.008 A 
HETATM    9  C   UNL     1      61.629  11.892   2.004  1.00  0.00     0.048 C 
ENDROOT
BRANCH   4  10
HETATM   10  N   UNL     1      63.004   8.944   5.718  1.00  0.00    -0.398 N 
HETATM   11  H   UNL     1      62.888   8.092   6.197  1.00  0.00     0.156 HD
HETATM   12  H   UNL     1      63.396   9.720   6.181  1.00  0.00     0.156 HD
ENDBRANCH   4  10
TORSDOF 1
ENDMDL
MODEL 7
REMARK VINA RESULT:      -4.1      1.616      2.449
REMARK  1 active torsions:
REMARK  status: ('A' for Active; 'I' for Inactive)
REMARK    1  A    between atoms: C_4  and  N_7 
ROOT
HETATM    1  N   UNL     1      63.904   6.446   5.936  1.00  0.00    -0.191 NA
HETATM    2  C   UNL     1      63.028   8.385   4.449  1.00  0.00     0.070 A 
HETATM    3  C   UNL     1      63.498   7.310   5.275  1.00  0.00     0.101 C 
HETATM    4  C   UNL     1      62.802   8.203   3.072  1.00  0.00     0.047 A 
HETATM    5  C   UNL     1      62.293   9.284   2.334  1.00  0.00     0.037 A 
HETATM    6  C   UNL     1      62.830   9.642   5.039  1.00  0.00     0.025 A 
HETATM    7  C   UNL     1      62.106  10.547   2.915  1.00  0.00    -0.060 A 
HETATM    8  C   UNL     1      62.381  10.718   4.274  1.00  0.00     0.008 A 
HETATM    9  C   UNL     1      61.631  11.710   2.095  1.00  0.00     0.048 C 
ENDROOT
BRANCH   4  10
HETATM   10  N   UNL     1      62.850   6.940   2.456  1.00  0.00    -0.398 N 
HETATM   11  H   UNL     1      63.716   6.492   2.318  1.00  0.00     0.156 HD
HETATM   12  H   UNL     1      62.018   6.502   2.164  1.00  0.00     0.156 HD
ENDBRANCH   4  10
TORSDOF 1
ENDMDL
MODEL 8
REMARK VINA RESULT:      -4.1      2.559      4.217
REMARK  1 active torsions:
REMARK  status: ('A' for Active; 'I' for Inactive)
REMARK    1  A    between atoms: C_4  and  N_7 
ROOT
HETATM    1  N   UNL     1      61.860  11.688   4.356  1.00  0.00    -0.191 NA
HETATM    2  C   UNL     1      62.672   9.353   3.562  1.00  0.00     0.070 A 
HETATM    3  C   UNL     1      62.234  10.650   3.993  1.00  0.00     0.101 C 
HETATM    4  C   UNL     1      62.102   8.725   2.439  1.00  0.00     0.047 A 
HETATM    5  C   UNL     1      62.614   7.479   2.044  1.00  0.00     0.037 A 
HETATM    6  C   UNL     1      63.664   8.702   4.310  1.00  0.00     0.025 A 
HETATM    7  C   UNL     1      63.597   6.817   2.795  1.00  0.00    -0.060 A 
HETATM    8  C   UNL     1      64.116   7.437   3.933  1.00  0.00     0.008 A 
HETATM    9  C   UNL     1      64.081   5.453   2.398  1.00  0.00     0.048 C 
ENDROOT
BRANCH   4  10
HETATM   10  N   UNL     1      61.208   9.383   1.575  1.00  0.00    -0.398 N 
HETATM   11  H   UNL     1      60.237   9.298   1.714  1.00  0.00     0.156 HD
HETATM   12  H   UNL     1      61.553   9.929   0.832  1.00  0.00     0.156 HD
ENDBRANCH   4  10
TORSDOF 1
ENDMDL
MODEL 9
REMARK VINA RESULT:      -3.9      2.641      3.521
REMARK  1 active torsions:
REMARK  status: ('A' for Active; 'I' for Inactive)
REMARK    1  A    between atoms: C_4  and  N_7 
ROOT
HETATM    1  N   UNL     1      62.447   6.785   0.977  1.00  0.00    -0.191 NA
HETATM    2  C   UNL     1      62.675   8.503   2.910  1.00  0.00     0.070 A 
HETATM    3  C   UNL     1      62.538   7.547   1.849  1.00  0.00     0.101 C 
HETATM    4  C   UNL     1      62.015   9.745   2.864  1.00  0.00     0.047 A 
HETATM    5  C   UNL     1      62.153  10.611   3.960  1.00  0.00     0.037 A 
HETATM    6  C   UNL     1      63.516   8.187   3.987  1.00  0.00     0.025 A 
HETATM    7  C   UNL     1      63.003  10.307   5.034  1.00  0.00    -0.060 A 
HETATM    8  C   UNL     1      63.685   9.089   5.038  1.00  0.00     0.008 A 
HETATM    9  C   UNL     1      63.195  11.277   6.163  1.00  0.00     0.048 C 
ENDROOT
BRANCH   4  10
HETATM   10  N   UNL     1      61.057  10.058   1.883  1.00  0.00    -0.398 N 
HETATM   11  H   UNL     1      60.740   9.361   1.264  1.00  0.00     0.156 HD
HETATM   12  H   UNL     1      60.703  10.975   1.816  1.00  0.00     0.156 HD
ENDBRANCH   4  10
TORSDOF 1
ENDMDL
