MODEL 1
REMARK VINA RESULT:      -5.2      0.000      0.000
REMARK  1 active torsions:
REMARK  status: ('A' for Active; 'I' for Inactive)
REMARK    1  A    between atoms: C_1  and  C_4 
ROOT
HETATM    1  C   UNL     1      62.937   9.179   4.663  1.00  0.00     0.011 A 
HETATM    2  C   UNL     1      62.190   9.672   2.409  1.00  0.00     0.073 A 
HETATM    3  C   UNL     1      62.710   8.770   3.339  1.00  0.00     0.042 A 
HETATM    4  C   UNL     1      61.898  10.978   2.796  1.00  0.00     0.138 A 
HETATM    5  C   UNL     1      62.639  10.495   5.041  1.00  0.00     0.018 A 
HETATM    6  C   UNL     1      62.120  11.394   4.105  1.00  0.00     0.045 A 
HETATM    7 CL   UNL     1      61.910   9.158   0.790  1.00  0.00    -0.081 Cl
HETATM    8  F   UNL     1      61.398  11.861   1.919  1.00  0.00    -0.204 F 
ENDROOT
BRANCH   1   9
HETATM    9  C   UNL     1      63.491   8.186   5.632  1.00  0.00     0.155 C 
HETATM   10  O   UNL     1      62.871   7.928   6.660  1.00  0.00    -0.293 OA
HETATM   11  C   UNL     1      64.807   7.521   5.319  1.00  0.00     0.096 C 
ENDBRANCH   1   9
TORSDOF 1
ENDMDL
MODEL 2
REMARK VINA RESULT:      -4.5      3.219      4.463
REMARK  1 active torsions:
REMARK  status: ('A' for Active; 'I' for Inactive)
REMARK    1  A    between atoms: C_1  and  C_4 
ROOT
HETATM    1  C   UNL     1      62.504   9.636   3.365  1.00  0.00     0.011 A 
HETATM    2  C   UNL     1      63.598   7.856   4.594  1.00  0.00     0.073 A 
HETATM    3  C   UNL     1      63.120   9.166   4.535  1.00  0.00     0.042 A 
HETATM    4  C   UNL     1      63.466   7.018   3.490  1.00  0.00     0.138 A 
HETATM    5  C   UNL     1      62.375   8.784   2.260  1.00  0.00     0.018 A 
HETATM    6  C   UNL     1      62.858   7.474   2.325  1.00  0.00     0.045 A 
HETATM    7 CL   UNL     1      64.347   7.288   6.037  1.00  0.00    -0.081 Cl
HETATM    8  F   UNL     1      63.919   5.755   3.525  1.00  0.00    -0.204 F 
ENDROOT
BRANCH   1   9
HETATM    9  C   UNL     1      62.000  11.042   3.338  1.00  0.00     0.155 C 
HETATM   10  O   UNL     1      61.812  11.642   4.393  1.00  0.00    -0.293 OA
HETATM   11  C   UNL     1      61.733  11.694   2.005  1.00  0.00     0.096 C 
ENDBRANCH   1   9
TORSDOF 1
ENDMDL
MODEL 3
REMARK VINA RESULT:      -4.5      2.305      3.116
REMARK  1 active torsions:
REMARK  status: ('A' for Active; 'I' for Inactive)
REMARK    1  A    between atoms: C_1  and  C_4 
ROOT
HETATM    1  C   UNL     1      62.514   8.375   2.657  1.00  0.00     0.011 A 
HETATM    2  C   UNL     1      62.015  10.747   2.716  1.00  0.00     0.073 A 
HETATM    3  C   UNL     1      62.115   9.552   2.003  1.00  0.00     0.042 A 
HETATM    4  C   UNL     1      62.315  10.772   4.076  1.00  0.00     0.138 A 
HETATM    5  C   UNL     1      62.812   8.411   4.026  1.00  0.00     0.018 A 
HETATM    6  C   UNL     1      62.713   9.612   4.734  1.00  0.00     0.045 A 
HETATM    7 CL   UNL     1      61.520  12.183   1.905  1.00  0.00    -0.081 Cl
HETATM    8  F   UNL     1      62.226  11.910   4.781  1.00  0.00    -0.204 F 
ENDROOT
BRANCH   1   9
HETATM    9  C   UNL     1      62.606   7.112   1.863  1.00  0.00     0.155 C 
HETATM   10  O   UNL     1      62.724   6.036   2.442  1.00  0.00    -0.293 OA
HETATM   11  C   UNL     1      62.550   7.193   0.359  1.00  0.00     0.096 C 
ENDBRANCH   1   9
TORSDOF 1
ENDMDL
MODEL 4
REMARK VINA RESULT:      -4.5      2.143      2.702
REMARK  1 active torsions:
REMARK  status: ('A' for Active; 'I' for Inactive)
REMARK    1  A    between atoms: C_1  and  C_4 
ROOT
HETATM    1  C   UNL     1      62.787   8.147   2.998  1.00  0.00     0.011 A 
HETATM    2  C   UNL     1      62.310  10.436   3.637  1.00  0.00     0.073 A 
HETATM    3  C   UNL     1      62.755   9.157   3.973  1.00  0.00     0.042 A 
HETATM    4  C   UNL     1      61.897  10.710   2.335  1.00  0.00     0.138 A 
HETATM    5  C   UNL     1      62.371   8.433   1.690  1.00  0.00     0.018 A 
HETATM    6  C   UNL     1      61.925   9.716   1.362  1.00  0.00     0.045 A 
HETATM    7 CL   UNL     1      62.278  11.668   4.840  1.00  0.00    -0.081 Cl
HETATM    8  F   UNL     1      61.466  11.933   1.992  1.00  0.00    -0.204 F 
ENDROOT
BRANCH   1   9
HETATM    9  C   UNL     1      63.273   6.790   3.390  1.00  0.00     0.155 C 
HETATM   10  O   UNL     1      62.464   5.913   3.680  1.00  0.00    -0.293 OA
HETATM   11  C   UNL     1      64.758   6.529   3.420  1.00  0.00     0.096 C 
ENDBRANCH   1   9
TORSDOF 1
ENDMDL
MODEL 5
REMARK VINA RESULT:      -4.5      3.009      4.095
REMARK  1 active torsions:
REMARK  status: ('A' for Active; 'I' for Inactive)
REMARK    1  A    between atoms: C_1  and  C_4 
ROOT
HETATM    1  C   UNL     1      62.147   9.831   3.992  1.00  0.00     0.011 A 
HETATM    2  C   UNL     1      61.473   7.505   3.894  1.00  0.00     0.073 A 
HETATM    3  C   UNL     1      61.296   8.831   3.497  1.00  0.00     0.042 A 
HETATM    4  C   UNL     1      62.494   7.175   4.782  1.00  0.00     0.138 A 
HETATM    5  C   UNL     1      63.173   9.489   4.884  1.00  0.00     0.018 A 
HETATM    6  C   UNL     1      63.343   8.159   5.278  1.00  0.00     0.045 A 
HETATM    7 CL   UNL     1      60.425   6.285   3.277  1.00  0.00    -0.081 Cl
HETATM    8  F   UNL     1      62.682   5.907   5.176  1.00  0.00    -0.204 F 
ENDROOT
BRANCH   1   9
HETATM    9  C   UNL     1      61.932  11.240   3.543  1.00  0.00     0.155 C 
HETATM   10  O   UNL     1      61.868  12.141   4.375  1.00  0.00    -0.293 OA
HETATM   11  C   UNL     1      61.797  11.521   2.068  1.00  0.00     0.096 C 
ENDBRANCH   1   9
TORSDOF 1
ENDMDL
MODEL 6
REMARK VINA RESULT:      -4.4      1.646      2.389
REMARK  1 active torsions:
REMARK  status: ('A' for Active; 'I' for Inactive)
REMARK    1  A    between atoms: C_1  and  C_4 
ROOT
HETATM    1  C   UNL     1      63.654   8.097   4.621  1.00  0.00     0.011 A 
HETATM    2  C   UNL     1      62.464   9.797   3.367  1.00  0.00     0.073 A 
HETATM    3  C   UNL     1      63.115   9.391   4.533  1.00  0.00     0.042 A 
HETATM    4  C   UNL     1      62.347   8.918   2.294  1.00  0.00     0.138 A 
HETATM    5  C   UNL     1      63.532   7.221   3.534  1.00  0.00     0.018 A 
HETATM    6  C   UNL     1      62.877   7.634   2.371  1.00  0.00     0.045 A 
HETATM    7 CL   UNL     1      61.811  11.388   3.269  1.00  0.00    -0.081 Cl
HETATM    8  F   UNL     1      61.725   9.288   1.164  1.00  0.00    -0.204 F 
ENDROOT
BRANCH   1   9
HETATM    9  C   UNL     1      64.348   7.697   5.882  1.00  0.00     0.155 C 
HETATM   10  O   UNL     1      63.687   7.386   6.869  1.00  0.00    -0.293 OA
HETATM   11  C   UNL     1      65.856   7.684   5.910  1.00  0.00     0.096 C 
ENDBRANCH   1   9
TORSDOF 1
ENDMDL
MODEL 7
REMARK VINA RESULT:      -4.3      2.809      3.759
REMARK  1 active torsions:
REMARK  status: ('A' for Active; 'I' for Inactive)
REMARK    1  A    between atoms: C_1  and  C_4 
ROOT
HETATM    1  C   UNL     1      62.242   8.700   1.913  1.00  0.00     0.011 A 
HETATM    2  C   UNL     1      62.513   9.800   4.057  1.00  0.00     0.073 A 
HETATM    3  C   UNL     1      62.573   8.644   3.276  1.00  0.00     0.042 A 
HETATM    4  C   UNL     1      62.124  11.007   3.483  1.00  0.00     0.138 A 
HETATM    5  C   UNL     1      61.852   9.921   1.345  1.00  0.00     0.018 A 
HETATM    6  C   UNL     1      61.793  11.073   2.133  1.00  0.00     0.045 A 
HETATM    7 CL   UNL     1      62.926   9.720   5.727  1.00  0.00    -0.081 Cl
HETATM    8  F   UNL     1      62.060  12.129   4.215  1.00  0.00    -0.204 F 
ENDROOT
BRANCH   1   9
HETATM    9  C   UNL     1      62.321   7.445   1.106  1.00  0.00     0.155 C 
HETATM   10  O   UNL     1      63.314   6.729   1.189  1.00  0.00    -0.293 OA
HETATM   11  C   UNL     1      61.167   7.088   0.204  1.00  0.00     0.096 C 
ENDBRANCH   1   9
TORSDOF 1
ENDMDL
MODEL 8
REMARK VINA RESULT:      -4.0      2.311      2.739
REMARK  1 active torsions:
REMARK  status: ('A' for Active; 'I' for Inactive)
REMARK    1  A    between atoms: C_1  and  C_4 
ROOT
HETATM    1  C   UNL     1      63.273   8.310   4.563  1.00  0.00     0.011 A 
HETATM    2  C   UNL     1      61.709   8.404   2.713  1.00  0.00     0.073 A 
HETATM    3  C   UNL     1      62.915   8.796   3.296  1.00  0.00     0.042 A 
HETATM    4  C   UNL     1      60.860   7.534   3.392  1.00  0.00     0.138 A 
HETATM    5  C   UNL     1      62.411   7.434   5.237  1.00  0.00     0.018 A 
HETATM    6  C   UNL     1      61.204   7.047   4.649  1.00  0.00     0.045 A 
HETATM    7 CL   UNL     1      61.283   9.002   1.156  1.00  0.00    -0.081 Cl
HETATM    8  F   UNL     1      59.695   7.145   2.851  1.00  0.00    -0.204 F 
ENDROOT
BRANCH   1   9
HETATM    9  C   UNL     1      64.573   8.747   5.155  1.00  0.00     0.155 C 
HETATM   10  O   UNL     1      64.637   9.807   5.771  1.00  0.00    -0.293 OA
HETATM   11  C   UNL     1      65.784   7.865   4.980  1.00  0.00     0.096 C 
ENDBRANCH   1   9
TORSDOF 1
ENDMDL
MODEL 9
REMARK VINA RESULT:      -3.9      3.833      5.060
REMARK  1 active torsions:
REMARK  status: ('A' for Active; 'I' for Inactive)
REMARK    1  A    between atoms: C_1  and  C_4 
ROOT
HETATM    1  C   UNL     1      63.177   8.456   4.510  1.00  0.00     0.011 A 
HETATM    2  C   UNL     1      65.101   7.881   5.868  1.00  0.00     0.073 A 
HETATM    3  C   UNL     1      64.503   8.693   4.903  1.00  0.00     0.042 A 
HETATM    4  C   UNL     1      64.380   6.834   6.438  1.00  0.00     0.138 A 
HETATM    5  C   UNL     1      62.460   7.400   5.091  1.00  0.00     0.018 A 
HETATM    6  C   UNL     1      63.066   6.590   6.055  1.00  0.00     0.045 A 
HETATM    7 CL   UNL     1      66.727   8.184   6.346  1.00  0.00    -0.081 Cl
HETATM    8  F   UNL     1      64.936   6.041   7.367  1.00  0.00    -0.204 F 
ENDROOT
BRANCH   1   9
HETATM    9  C   UNL     1      62.567   9.348   3.478  1.00  0.00     0.155 C 
HETATM   10  O   UNL     1      62.476   8.962   2.316  1.00  0.00    -0.293 OA
HETATM   11  C   UNL     1      62.074  10.710   3.894  1.00  0.00     0.096 C 
ENDBRANCH   1   9
TORSDOF 1
ENDMDL
