MODEL 1
REMARK VINA RESULT:      -5.4      0.000      0.000
REMARK  1 active torsions:
REMARK  status: ('A' for Active; 'I' for Inactive)
REMARK    1  A    between atoms: C_1  and  C_2 
REMARK       I    between atoms: C_2  and  N_6 
ROOT
HETATM    1  C   UNL     1      62.964   9.480   4.229  1.00  0.00     0.038 A 
HETATM    2  C   UNL     1      62.825   8.762   3.013  1.00  0.00    -0.040 A 
HETATM    3  C   UNL     1      62.177   9.395   1.915  1.00  0.00    -0.055 A 
HETATM    4  C   UNL     1      62.450  10.786   4.325  1.00  0.00     0.017 A 
HETATM    5  C   UNL     1      63.332   7.354   2.819  1.00  0.00     0.050 C 
HETATM    6  C   UNL     1      61.821  11.396   3.241  1.00  0.00     0.002 A 
HETATM    7  C   UNL     1      61.690  10.702   2.043  1.00  0.00     0.007 A 
HETATM    8  C   UNL     1      61.993   8.688   0.594  1.00  0.00     0.049 C 
ENDROOT
BRANCH   1   9
HETATM    9  C   UNL     1      63.598   8.897   5.451  1.00  0.00     0.249 C 
HETATM   10  O   UNL     1      64.765   9.104   5.769  1.00  0.00    -0.268 OA
HETATM   11  N   UNL     1      62.825   8.074   6.228  1.00  0.00    -0.366 N 
HETATM   12  H   UNL     1      61.887   7.902   5.981  1.00  0.00     0.159 HD
HETATM   13  H   UNL     1      63.207   7.656   7.033  1.00  0.00     0.159 HD
ENDBRANCH   1   9
TORSDOF 1
ENDMDL
MODEL 2
REMARK VINA RESULT:      -5.3      1.219      2.568
REMARK  1 active torsions:
REMARK  status: ('A' for Active; 'I' for Inactive)
REMARK    1  A    between atoms: C_1  and  C_2 
REMARK       I    between atoms: C_2  and  N_6 
ROOT
HETATM    1  C   UNL     1      62.902   8.756   4.122  1.00  0.00     0.038 A 
HETATM    2  C   UNL     1      62.489  10.077   3.807  1.00  0.00    -0.040 A 
HETATM    3  C   UNL     1      62.067  10.362   2.478  1.00  0.00    -0.055 A 
HETATM    4  C   UNL     1      62.896   7.770   3.119  1.00  0.00     0.017 A 
HETATM    5  C   UNL     1      62.473  11.202   4.812  1.00  0.00     0.050 C 
HETATM    6  C   UNL     1      62.476   8.062   1.823  1.00  0.00     0.002 A 
HETATM    7  C   UNL     1      62.062   9.351   1.508  1.00  0.00     0.007 A 
HETATM    8  C   UNL     1      61.618  11.746   2.073  1.00  0.00     0.049 C 
ENDROOT
BRANCH   1   9
HETATM    9  C   UNL     1      63.393   8.359   5.477  1.00  0.00     0.249 C 
HETATM   10  O   UNL     1      62.654   7.973   6.377  1.00  0.00    -0.268 OA
HETATM   11  N   UNL     1      64.740   8.460   5.711  1.00  0.00    -0.366 N 
HETATM   12  H   UNL     1      65.342   8.769   4.995  1.00  0.00     0.159 HD
HETATM   13  H   UNL     1      65.106   8.224   6.594  1.00  0.00     0.159 HD
ENDBRANCH   1   9
TORSDOF 1
ENDMDL
MODEL 3
REMARK VINA RESULT:      -4.7      2.103      2.975
REMARK  1 active torsions:
REMARK  status: ('A' for Active; 'I' for Inactive)
REMARK    1  A    between atoms: C_1  and  C_2 
REMARK       I    between atoms: C_2  and  N_6 
ROOT
HETATM    1  C   UNL     1      62.659   8.317   3.279  1.00  0.00     0.038 A 
HETATM    2  C   UNL     1      62.241   9.333   2.380  1.00  0.00    -0.040 A 
HETATM    3  C   UNL     1      62.079  10.657   2.874  1.00  0.00    -0.055 A 
HETATM    4  C   UNL     1      62.889   8.638   4.630  1.00  0.00     0.017 A 
HETATM    5  C   UNL     1      61.959   9.081   0.920  1.00  0.00     0.050 C 
HETATM    6  C   UNL     1      62.730   9.940   5.099  1.00  0.00     0.002 A 
HETATM    7  C   UNL     1      62.330  10.942   4.222  1.00  0.00     0.007 A 
HETATM    8  C   UNL     1      61.634  11.785   1.974  1.00  0.00     0.049 C 
ENDROOT
BRANCH   1   9
HETATM    9  C   UNL     1      62.829   6.888   2.872  1.00  0.00     0.249 C 
HETATM   10  O   UNL     1      61.898   6.095   2.788  1.00  0.00    -0.268 OA
HETATM   11  N   UNL     1      64.104   6.459   2.605  1.00  0.00    -0.366 N 
HETATM   12  H   UNL     1      64.858   7.089   2.669  1.00  0.00     0.159 HD
HETATM   13  H   UNL     1      64.264   5.523   2.349  1.00  0.00     0.159 HD
ENDBRANCH   1   9
TORSDOF 1
ENDMDL
MODEL 4
REMARK VINA RESULT:      -4.5      1.776      2.690
REMARK  1 active torsions:
REMARK  status: ('A' for Active; 'I' for Inactive)
REMARK    1  A    between atoms: C_1  and  C_2 
REMARK       I    between atoms: C_2  and  N_6 
ROOT
HETATM    1  C   UNL     1      62.499  10.138   3.653  1.00  0.00     0.038 A 
HETATM    2  C   UNL     1      63.085   8.863   3.869  1.00  0.00    -0.040 A 
HETATM    3  C   UNL     1      63.032   7.900   2.822  1.00  0.00    -0.055 A 
HETATM    4  C   UNL     1      61.873  10.414   2.423  1.00  0.00     0.017 A 
HETATM    5  C   UNL     1      63.765   8.472   5.157  1.00  0.00     0.050 C 
HETATM    6  C   UNL     1      61.833   9.463   1.405  1.00  0.00     0.002 A 
HETATM    7  C   UNL     1      62.412   8.216   1.606  1.00  0.00     0.007 A 
HETATM    8  C   UNL     1      63.632   6.525   2.985  1.00  0.00     0.049 C 
ENDROOT
BRANCH   1   9
HETATM    9  C   UNL     1      62.471  11.208   4.696  1.00  0.00     0.249 C 
HETATM   10  O   UNL     1      61.838  12.252   4.575  1.00  0.00    -0.268 OA
HETATM   11  N   UNL     1      63.216  11.002   5.828  1.00  0.00    -0.366 N 
HETATM   12  H   UNL     1      63.728  10.167   5.934  1.00  0.00     0.159 HD
HETATM   13  H   UNL     1      63.240  11.687   6.533  1.00  0.00     0.159 HD
ENDBRANCH   1   9
TORSDOF 1
ENDMDL
MODEL 5
REMARK VINA RESULT:      -4.4      2.130      3.315
REMARK  1 active torsions:
REMARK  status: ('A' for Active; 'I' for Inactive)
REMARK    1  A    between atoms: C_1  and  C_2 
REMARK       I    between atoms: C_2  and  N_6 
ROOT
HETATM    1  C   UNL     1      62.370   8.396   2.858  1.00  0.00     0.038 A 
HETATM    2  C   UNL     1      62.604   9.061   4.090  1.00  0.00    -0.040 A 
HETATM    3  C   UNL     1      62.408  10.469   4.153  1.00  0.00    -0.055 A 
HETATM    4  C   UNL     1      61.967   9.139   1.734  1.00  0.00     0.017 A 
HETATM    5  C   UNL     1      63.050   8.351   5.344  1.00  0.00     0.050 C 
HETATM    6  C   UNL     1      61.775  10.517   1.811  1.00  0.00     0.002 A 
HETATM    7  C   UNL     1      61.993  11.175   3.016  1.00  0.00     0.007 A 
HETATM    8  C   UNL     1      62.641  11.241   5.430  1.00  0.00     0.049 C 
ENDROOT
BRANCH   1   9
HETATM    9  C   UNL     1      62.577   6.926   2.675  1.00  0.00     0.249 C 
HETATM   10  O   UNL     1      61.699   6.092   2.867  1.00  0.00    -0.268 OA
HETATM   11  N   UNL     1      63.827   6.510   2.294  1.00  0.00    -0.366 N 
HETATM   12  H   UNL     1      64.538   7.173   2.137  1.00  0.00     0.159 HD
HETATM   13  H   UNL     1      64.012   5.551   2.177  1.00  0.00     0.159 HD
ENDBRANCH   1   9
TORSDOF 1
ENDMDL
MODEL 6
REMARK VINA RESULT:      -4.3      1.645      2.951
REMARK  1 active torsions:
REMARK  status: ('A' for Active; 'I' for Inactive)
REMARK    1  A    between atoms: C_1  and  C_2 
REMARK       I    between atoms: C_2  and  N_6 
ROOT
HETATM    1  C   UNL     1      63.159   7.708   2.879  1.00  0.00     0.038 A 
HETATM    2  C   UNL     1      62.923   8.927   3.566  1.00  0.00    -0.040 A 
HETATM    3  C   UNL     1      62.183   9.950   2.909  1.00  0.00    -0.055 A 
HETATM    4  C   UNL     1      62.672   7.544   1.569  1.00  0.00     0.017 A 
HETATM    5  C   UNL     1      63.416   9.198   4.966  1.00  0.00     0.050 C 
HETATM    6  C   UNL     1      61.945   8.552   0.939  1.00  0.00     0.002 A 
HETATM    7  C   UNL     1      61.702   9.746   1.609  1.00  0.00     0.007 A 
HETATM    8  C   UNL     1      61.898  11.272   3.579  1.00  0.00     0.049 C 
ENDROOT
BRANCH   1   9
HETATM    9  C   UNL     1      63.951   6.583   3.465  1.00  0.00     0.249 C 
HETATM   10  O   UNL     1      65.164   6.469   3.330  1.00  0.00    -0.268 OA
HETATM   11  N   UNL     1      63.260   5.629   4.168  1.00  0.00    -0.366 N 
HETATM   12  H   UNL     1      62.286   5.712   4.282  1.00  0.00     0.159 HD
HETATM   13  H   UNL     1      63.738   4.862   4.557  1.00  0.00     0.159 HD
ENDBRANCH   1   9
TORSDOF 1
ENDMDL
MODEL 7
REMARK VINA RESULT:      -4.3      2.243      3.311
REMARK  1 active torsions:
REMARK  status: ('A' for Active; 'I' for Inactive)
REMARK    1  A    between atoms: C_1  and  C_2 
REMARK       I    between atoms: C_2  and  N_6 
ROOT
HETATM    1  C   UNL     1      62.522   9.709   3.481  1.00  0.00     0.038 A 
HETATM    2  C   UNL     1      62.460   8.779   2.411  1.00  0.00    -0.040 A 
HETATM    3  C   UNL     1      63.068   7.503   2.579  1.00  0.00    -0.055 A 
HETATM    4  C   UNL     1      63.189   9.357   4.669  1.00  0.00     0.017 A 
HETATM    5  C   UNL     1      61.778   9.071   1.097  1.00  0.00     0.050 C 
HETATM    6  C   UNL     1      63.777   8.103   4.821  1.00  0.00     0.002 A 
HETATM    7  C   UNL     1      63.713   7.183   3.781  1.00  0.00     0.007 A 
HETATM    8  C   UNL     1      63.043   6.467   1.481  1.00  0.00     0.049 C 
ENDROOT
BRANCH   1   9
HETATM    9  C   UNL     1      61.944  11.086   3.398  1.00  0.00     0.249 C 
HETATM   10  O   UNL     1      61.792  11.814   4.372  1.00  0.00    -0.268 OA
HETATM   11  N   UNL     1      61.548  11.526   2.161  1.00  0.00    -0.366 N 
HETATM   12  H   UNL     1      61.665  10.948   1.372  1.00  0.00     0.159 HD
HETATM   13  H   UNL     1      61.147  12.419   2.062  1.00  0.00     0.159 HD
ENDBRANCH   1   9
TORSDOF 1
ENDMDL
MODEL 8
REMARK VINA RESULT:      -4.3      1.763      2.426
REMARK  1 active torsions:
REMARK  status: ('A' for Active; 'I' for Inactive)
REMARK    1  A    between atoms: C_1  and  C_2 
REMARK       I    between atoms: C_2  and  N_6 
ROOT
HETATM    1  C   UNL     1      64.586   8.096   4.805  1.00  0.00     0.038 A 
HETATM    2  C   UNL     1      64.444   7.155   3.752  1.00  0.00    -0.040 A 
HETATM    3  C   UNL     1      63.406   7.347   2.799  1.00  0.00    -0.055 A 
HETATM    4  C   UNL     1      63.695   9.182   4.889  1.00  0.00     0.017 A 
HETATM    5  C   UNL     1      65.343   5.955   3.587  1.00  0.00     0.050 C 
HETATM    6  C   UNL     1      62.685   9.360   3.946  1.00  0.00     0.002 A 
HETATM    7  C   UNL     1      62.545   8.448   2.907  1.00  0.00     0.007 A 
HETATM    8  C   UNL     1      63.196   6.384   1.655  1.00  0.00     0.049 C 
ENDROOT
BRANCH   1   9
HETATM    9  C   UNL     1      65.622   7.970   5.875  1.00  0.00     0.249 C 
HETATM   10  O   UNL     1      66.750   8.445   5.783  1.00  0.00    -0.268 OA
HETATM   11  N   UNL     1      65.281   7.264   7.000  1.00  0.00    -0.366 N 
HETATM   12  H   UNL     1      64.378   6.880   7.083  1.00  0.00     0.159 HD
HETATM   13  H   UNL     1      65.937   7.142   7.723  1.00  0.00     0.159 HD
ENDBRANCH   1   9
TORSDOF 1
ENDMDL
MODEL 9
REMARK VINA RESULT:      -4.0      3.784      5.953
REMARK  1 active torsions:
REMARK  status: ('A' for Active; 'I' for Inactive)
REMARK    1  A    between atoms: C_1  and  C_2 
REMARK       I    between atoms: C_2  and  N_6 
ROOT
HETATM    1  C   UNL     1      65.698   7.148   5.393  1.00  0.00     0.038 A 
HETATM    2  C   UNL     1      66.426   6.451   6.392  1.00  0.00    -0.040 A 
HETATM    3  C   UNL     1      67.274   5.379   5.996  1.00  0.00    -0.055 A 
HETATM    4  C   UNL     1      65.821   6.760   4.046  1.00  0.00     0.017 A 
HETATM    5  C   UNL     1      66.348   6.788   7.860  1.00  0.00     0.050 C 
HETATM    6  C   UNL     1      66.660   5.711   3.672  1.00  0.00     0.002 A 
HETATM    7  C   UNL     1      67.382   5.029   4.644  1.00  0.00     0.007 A 
HETATM    8  C   UNL     1      68.074   4.593   7.007  1.00  0.00     0.049 C 
ENDROOT
BRANCH   1   9
HETATM    9  C   UNL     1      64.756   8.267   5.703  1.00  0.00     0.249 C 
HETATM   10  O   UNL     1      65.084   9.449   5.693  1.00  0.00    -0.268 OA
HETATM   11  N   UNL     1      63.469   7.930   6.036  1.00  0.00    -0.366 N 
HETATM   12  H   UNL     1      63.196   6.984   6.047  1.00  0.00     0.159 HD
HETATM   13  H   UNL     1      62.819   8.632   6.264  1.00  0.00     0.159 HD
ENDBRANCH   1   9
TORSDOF 1
ENDMDL
