MODEL 1
REMARK VINA RESULT:      -4.0      0.000      0.000
REMARK  2 active torsions:
REMARK  status: ('A' for Active; 'I' for Inactive)
REMARK    1  A    between atoms: C_3  and  C_6 
REMARK    2  A    between atoms: N_4  and  C_6 
ROOT
HETATM    1  N   UNL     1      61.752  11.409   2.992  1.00  0.00    -0.375 N 
ATOM      2  HN  UNL     1      61.445  12.376   3.094  1.00  0.00     0.164 HD
HETATM    3  C   UNL     1      62.608   9.361   3.974  1.00  0.00    -0.017 A 
HETATM    4  C   UNL     1      62.187  10.685   4.049  1.00  0.00     0.096 A 
HETATM    5  C   UNL     1      61.745  10.784   1.796  1.00  0.00     0.087 A 
HETATM    6  C   UNL     1      62.573   8.749   2.716  1.00  0.00     0.011 A 
HETATM    7  C   UNL     1      62.143   9.472   1.607  1.00  0.00     0.018 A 
ENDROOT
BRANCH   3   8
HETATM    8  C   UNL     1      63.054   8.620   5.206  1.00  0.00     0.271 C 
BRANCH   8   9
HETATM    9  N   UNL     1      64.377   9.062   5.649  1.00  0.00    -0.075 N 
HETATM   10  C   UNL     1      65.415   8.163   5.171  1.00  0.00     0.267 C 
HETATM   11  H   UNL     1      64.396   9.082   6.669  1.00  0.00     0.277 HD
HETATM   12  H   UNL     1      64.552   9.992   5.270  1.00  0.00     0.277 HD
ENDBRANCH   8   9
ENDBRANCH   3   8
TORSDOF 2
ENDMDL
MODEL 2
REMARK VINA RESULT:      -3.7      0.876      1.607
REMARK  2 active torsions:
REMARK  status: ('A' for Active; 'I' for Inactive)
REMARK    1  A    between atoms: C_3  and  C_6 
REMARK    2  A    between atoms: N_4  and  C_6 
ROOT
HETATM    1  N   UNL     1      62.075   9.755   1.556  1.00  0.00    -0.375 N 
ATOM      2  HN  UNL     1      62.003   9.409   0.600  1.00  0.00     0.164 HD
HETATM    3  C   UNL     1      62.621   9.380   3.891  1.00  0.00    -0.017 A 
HETATM    4  C   UNL     1      62.494   8.963   2.570  1.00  0.00     0.096 A 
HETATM    5  C   UNL     1      61.756  11.027   1.877  1.00  0.00     0.087 A 
HETATM    6  C   UNL     1      62.291  10.710   4.177  1.00  0.00     0.011 A 
HETATM    7  C   UNL     1      61.844  11.545   3.157  1.00  0.00     0.018 A 
ENDROOT
BRANCH   3   8
HETATM    8  C   UNL     1      63.120   8.439   4.955  1.00  0.00     0.271 C 
BRANCH   8   9
HETATM    9  N   UNL     1      64.308   8.966   5.624  1.00  0.00    -0.075 N 
HETATM   10  C   UNL     1      65.454   8.094   5.419  1.00  0.00     0.267 C 
HETATM   11  H   UNL     1      64.121   9.041   6.624  1.00  0.00     0.277 HD
HETATM   12  H   UNL     1      64.523   9.883   5.232  1.00  0.00     0.277 HD
ENDBRANCH   8   9
ENDBRANCH   3   8
TORSDOF 2
ENDMDL
MODEL 3
REMARK VINA RESULT:      -3.5      1.701      3.778
REMARK  2 active torsions:
REMARK  status: ('A' for Active; 'I' for Inactive)
REMARK    1  A    between atoms: C_3  and  C_6 
REMARK    2  A    between atoms: N_4  and  C_6 
ROOT
HETATM    1  N   UNL     1      63.473   9.679   5.525  1.00  0.00    -0.375 N 
ATOM      2  HN  UNL     1      64.011   9.352   6.327  1.00  0.00     0.164 HD
HETATM    3  C   UNL     1      62.547   9.288   3.316  1.00  0.00    -0.017 A 
HETATM    4  C   UNL     1      63.279   8.902   4.434  1.00  0.00     0.096 A 
HETATM    5  C   UNL     1      62.917  10.908   5.497  1.00  0.00     0.087 A 
HETATM    6  C   UNL     1      61.978  10.566   3.334  1.00  0.00     0.011 A 
HETATM    7  C   UNL     1      62.171  11.394   4.436  1.00  0.00     0.018 A 
ENDROOT
BRANCH   3   8
HETATM    8  C   UNL     1      62.360   8.351   2.153  1.00  0.00     0.271 C 
BRANCH   8   9
HETATM    9  N   UNL     1      60.977   7.884   2.057  1.00  0.00    -0.075 N 
HETATM   10  C   UNL     1      60.404   8.209   0.760  1.00  0.00     0.267 C 
HETATM   11  H   UNL     1      60.423   8.330   2.788  1.00  0.00     0.277 HD
HETATM   12  H   UNL     1      60.968   6.870   2.171  1.00  0.00     0.277 HD
ENDBRANCH   8   9
ENDBRANCH   3   8
TORSDOF 2
ENDMDL
MODEL 4
REMARK VINA RESULT:      -3.5      1.528      4.097
REMARK  2 active torsions:
REMARK  status: ('A' for Active; 'I' for Inactive)
REMARK    1  A    between atoms: C_3  and  C_6 
REMARK    2  A    between atoms: N_4  and  C_6 
ROOT
HETATM    1  N   UNL     1      64.011   7.039   3.178  1.00  0.00    -0.375 N 
ATOM      2  HN  UNL     1      64.025   6.262   2.518  1.00  0.00     0.164 HD
HETATM    3  C   UNL     1      62.984   9.077   4.003  1.00  0.00    -0.017 A 
HETATM    4  C   UNL     1      63.061   8.001   3.125  1.00  0.00     0.096 A 
HETATM    5  C   UNL     1      64.938   7.160   4.151  1.00  0.00     0.087 A 
HETATM    6  C   UNL     1      63.959   9.158   5.003  1.00  0.00     0.011 A 
HETATM    7  C   UNL     1      64.957   8.190   5.075  1.00  0.00     0.018 A 
ENDROOT
BRANCH   3   8
HETATM    8  C   UNL     1      61.878  10.092   3.888  1.00  0.00     0.271 C 
BRANCH   8   9
HETATM    9  N   UNL     1      61.505  10.325   2.493  1.00  0.00    -0.075 N 
HETATM   10  C   UNL     1      61.811  11.689   2.091  1.00  0.00     0.267 C 
HETATM   11  H   UNL     1      60.504  10.161   2.384  1.00  0.00     0.277 HD
HETATM   12  H   UNL     1      62.037   9.685   1.903  1.00  0.00     0.277 HD
ENDBRANCH   8   9
ENDBRANCH   3   8
TORSDOF 2
ENDMDL
MODEL 5
REMARK VINA RESULT:      -3.4      2.494      5.215
REMARK  2 active torsions:
REMARK  status: ('A' for Active; 'I' for Inactive)
REMARK    1  A    between atoms: C_3  and  C_6 
REMARK    2  A    between atoms: N_4  and  C_6 
ROOT
HETATM    1  N   UNL     1      67.347   7.699   6.646  1.00  0.00    -0.375 N 
ATOM      2  HN  UNL     1      67.824   7.988   7.500  1.00  0.00     0.164 HD
HETATM    3  C   UNL     1      65.502   7.934   5.087  1.00  0.00    -0.017 A 
HETATM    4  C   UNL     1      66.192   8.279   6.244  1.00  0.00     0.096 A 
HETATM    5  C   UNL     1      67.834   6.717   5.859  1.00  0.00     0.087 A 
HETATM    6  C   UNL     1      66.049   6.919   4.294  1.00  0.00     0.011 A 
HETATM    7  C   UNL     1      67.229   6.295   4.688  1.00  0.00     0.018 A 
ENDROOT
BRANCH   3   8
HETATM    8  C   UNL     1      64.235   8.649   4.700  1.00  0.00     0.271 C 
BRANCH   8   9
HETATM    9  N   UNL     1      63.835   9.623   5.716  1.00  0.00    -0.075 N 
HETATM   10  C   UNL     1      62.863  10.564   5.183  1.00  0.00     0.267 C 
HETATM   11  H   UNL     1      64.660  10.135   6.028  1.00  0.00     0.277 HD
HETATM   12  H   UNL     1      63.410   9.122   6.496  1.00  0.00     0.277 HD
ENDBRANCH   8   9
ENDBRANCH   3   8
TORSDOF 2
ENDMDL
MODEL 6
REMARK VINA RESULT:      -3.4      1.742      2.055
REMARK  2 active torsions:
REMARK  status: ('A' for Active; 'I' for Inactive)
REMARK    1  A    between atoms: C_3  and  C_6 
REMARK    2  A    between atoms: N_4  and  C_6 
ROOT
HETATM    1  N   UNL     1      60.225   8.027   2.678  1.00  0.00    -0.375 N 
ATOM      2  HN  UNL     1      59.505   7.337   2.888  1.00  0.00     0.164 HD
HETATM    3  C   UNL     1      61.852   9.662   3.430  1.00  0.00    -0.017 A 
HETATM    4  C   UNL     1      60.857   8.717   3.655  1.00  0.00     0.096 A 
HETATM    5  C   UNL     1      60.598   8.299   1.410  1.00  0.00     0.087 A 
HETATM    6  C   UNL     1      62.216   9.905   2.101  1.00  0.00     0.011 A 
HETATM    7  C   UNL     1      61.575   9.220   1.073  1.00  0.00     0.018 A 
ENDROOT
BRANCH   3   8
HETATM    8  C   UNL     1      62.522  10.368   4.579  1.00  0.00     0.271 C 
BRANCH   8   9
HETATM    9  N   UNL     1      63.073   9.419   5.546  1.00  0.00    -0.075 N 
HETATM   10  C   UNL     1      64.338   8.872   5.079  1.00  0.00     0.267 C 
HETATM   11  H   UNL     1      62.409   8.656   5.680  1.00  0.00     0.277 HD
HETATM   12  H   UNL     1      63.236   9.908   6.425  1.00  0.00     0.277 HD
ENDBRANCH   8   9
ENDBRANCH   3   8
TORSDOF 2
ENDMDL
MODEL 7
REMARK VINA RESULT:      -3.3      4.561      7.646
REMARK  2 active torsions:
REMARK  status: ('A' for Active; 'I' for Inactive)
REMARK    1  A    between atoms: C_3  and  C_6 
REMARK    2  A    between atoms: N_4  and  C_6 
ROOT
HETATM    1  N   UNL     1      66.970   3.776   8.262  1.00  0.00    -0.375 N 
ATOM      2  HN  UNL     1      66.920   2.761   8.179  1.00  0.00     0.164 HD
HETATM    3  C   UNL     1      66.095   5.974   7.724  1.00  0.00    -0.017 A 
HETATM    4  C   UNL     1      66.082   4.586   7.641  1.00  0.00     0.096 A 
HETATM    5  C   UNL     1      67.926   4.381   8.998  1.00  0.00     0.087 A 
HETATM    6  C   UNL     1      67.096   6.560   8.507  1.00  0.00     0.011 A 
HETATM    7  C   UNL     1      68.032   5.753   9.148  1.00  0.00     0.018 A 
ENDROOT
BRANCH   3   8
HETATM    8  C   UNL     1      65.053   6.801   7.020  1.00  0.00     0.271 C 
BRANCH   8   9
HETATM    9  N   UNL     1      65.631   8.012   6.436  1.00  0.00    -0.075 N 
HETATM   10  C   UNL     1      66.188   7.743   5.119  1.00  0.00     0.267 C 
HETATM   11  H   UNL     1      66.371   8.355   7.048  1.00  0.00     0.277 HD
HETATM   12  H   UNL     1      64.894   8.710   6.341  1.00  0.00     0.277 HD
ENDBRANCH   8   9
ENDBRANCH   3   8
TORSDOF 2
ENDMDL
MODEL 8
REMARK VINA RESULT:      -3.2      5.565      7.154
REMARK  2 active torsions:
REMARK  status: ('A' for Active; 'I' for Inactive)
REMARK    1  A    between atoms: C_3  and  C_6 
REMARK    2  A    between atoms: N_4  and  C_6 
ROOT
HETATM    1  N   UNL     1      66.735   8.033   7.267  1.00  0.00    -0.375 N 
ATOM      2  HN  UNL     1      66.321   8.910   7.580  1.00  0.00     0.164 HD
HETATM    3  C   UNL     1      67.537   5.796   7.758  1.00  0.00    -0.017 A 
HETATM    4  C   UNL     1      66.984   7.017   8.127  1.00  0.00     0.096 A 
HETATM    5  C   UNL     1      67.065   7.824   5.976  1.00  0.00     0.087 A 
HETATM    6  C   UNL     1      67.853   5.617   6.407  1.00  0.00     0.011 A 
HETATM    7  C   UNL     1      67.621   6.649   5.501  1.00  0.00     0.018 A 
ENDROOT
BRANCH   3   8
HETATM    8  C   UNL     1      67.758   4.708   8.775  1.00  0.00     0.271 C 
BRANCH   8   9
HETATM    9  N   UNL     1      66.809   3.609   8.602  1.00  0.00    -0.075 N 
HETATM   10  C   UNL     1      67.501   2.356   8.347  1.00  0.00     0.267 C 
HETATM   11  H   UNL     1      66.197   3.819   7.813  1.00  0.00     0.277 HD
HETATM   12  H   UNL     1      66.265   3.511   9.459  1.00  0.00     0.277 HD
ENDBRANCH   8   9
ENDBRANCH   3   8
TORSDOF 2
ENDMDL
MODEL 9
REMARK VINA RESULT:      -3.2     12.349     13.928
REMARK  2 active torsions:
REMARK  status: ('A' for Active; 'I' for Inactive)
REMARK    1  A    between atoms: C_3  and  C_6 
REMARK    2  A    between atoms: N_4  and  C_6 
ROOT
HETATM    1  N   UNL     1      58.216   1.757  11.436  1.00  0.00    -0.375 N 
ATOM      2  HN  UNL     1      58.336   1.784  10.424  1.00  0.00     0.164 HD
HETATM    3  C   UNL     1      56.762   1.733  13.379  1.00  0.00    -0.017 A 
HETATM    4  C   UNL     1      56.989   1.777  12.008  1.00  0.00     0.096 A 
HETATM    5  C   UNL     1      59.271   1.700  12.275  1.00  0.00     0.087 A 
HETATM    6  C   UNL     1      57.885   1.662  14.212  1.00  0.00     0.011 A 
HETATM    7  C   UNL     1      59.160   1.653  13.653  1.00  0.00     0.018 A 
ENDROOT
BRANCH   3   8
HETATM    8  C   UNL     1      55.362   1.734  13.932  1.00  0.00     0.271 C 
BRANCH   8   9
HETATM    9  N   UNL     1      55.099   2.934  14.726  1.00  0.00    -0.075 N 
HETATM   10  C   UNL     1      54.545   3.996  13.901  1.00  0.00     0.267 C 
HETATM   11  H   UNL     1      55.972   3.255  15.143  1.00  0.00     0.277 HD
HETATM   12  H   UNL     1      54.422   2.700  15.453  1.00  0.00     0.277 HD
ENDBRANCH   8   9
ENDBRANCH   3   8
TORSDOF 2
ENDMDL
