MODEL 1
REMARK VINA RESULT:      -5.0      0.000      0.000
REMARK  5 active torsions:
REMARK  status: ('A' for Active; 'I' for Inactive)
REMARK    1  A    between atoms: C_1  and  C_3 
REMARK    2  A    between atoms: C_1  and  O_7 
REMARK    3  A    between atoms: C_3  and  C_4 
REMARK    4  A    between atoms: C_5  and  N_6 
REMARK    5  A    between atoms: O_7  and  C_12 
ROOT
HETATM    1  C   UNL     1      63.391   8.647   4.697  1.00  0.00    -0.049 A 
HETATM    2  C   UNL     1      61.977  10.491   3.080  1.00  0.00     0.025 A 
HETATM    3  C   UNL     1      62.369   9.249   2.573  1.00  0.00     0.029 A 
HETATM    4  C   UNL     1      62.351  10.822   4.383  1.00  0.00     0.029 A 
HETATM    5  C   UNL     1      63.026   9.903   5.197  1.00  0.00     0.010 A 
HETATM    6  C   UNL     1      63.046   8.326   3.377  1.00  0.00     0.010 A 
ENDROOT
BRANCH   1   7
HETATM    7  C   UNL     1      64.174   7.666   5.538  1.00  0.00     0.149 C 
BRANCH   7   8
HETATM    8  C   UNL     1      65.628   8.025   5.760  1.00  0.00     0.263 C 
HETATM    9  O   UNL     1      66.417   8.418   4.915  1.00  0.00    -0.265 OA
BRANCH   8  10
HETATM   10  O   UNL     1      65.930   7.849   7.085  1.00  0.00    -0.322 OA
BRANCH  10  11
HETATM   11  C   UNL     1      65.711   6.532   7.614  1.00  0.00     0.174 C 
HETATM   12  C   UNL     1      66.475   6.342   8.912  1.00  0.00     0.034 C 
ENDBRANCH  10  11
ENDBRANCH   8  10
ENDBRANCH   7   8
ENDBRANCH   1   7
BRANCH   2  13
HETATM   13  N   UNL     1      61.442  11.460   2.224  1.00  0.00    -0.399 N 
HETATM   14  H   UNL     1      61.858  11.628   1.348  1.00  0.00     0.156 HD
HETATM   15  H   UNL     1      60.649  11.975   2.499  1.00  0.00     0.156 HD
ENDBRANCH   2  13
TORSDOF 5
ENDMDL
MODEL 2
REMARK VINA RESULT:      -5.0      1.461      2.041
REMARK  5 active torsions:
REMARK  status: ('A' for Active; 'I' for Inactive)
REMARK    1  A    between atoms: C_1  and  C_3 
REMARK    2  A    between atoms: C_1  and  O_7 
REMARK    3  A    between atoms: C_3  and  C_4 
REMARK    4  A    between atoms: C_5  and  N_6 
REMARK    5  A    between atoms: O_7  and  C_12 
ROOT
HETATM    1  C   UNL     1      62.762   8.712   3.828  1.00  0.00    -0.049 A 
HETATM    2  C   UNL     1      61.823  11.024   2.492  1.00  0.00     0.025 A 
HETATM    3  C   UNL     1      62.061   9.840   1.790  1.00  0.00     0.029 A 
HETATM    4  C   UNL     1      62.115  11.056   3.857  1.00  0.00     0.029 A 
HETATM    5  C   UNL     1      62.554   9.907   4.528  1.00  0.00     0.010 A 
HETATM    6  C   UNL     1      62.502   8.689   2.451  1.00  0.00     0.010 A 
ENDROOT
BRANCH   1   7
HETATM    7  C   UNL     1      63.294   7.480   4.523  1.00  0.00     0.149 C 
BRANCH   7   8
HETATM    8  C   UNL     1      63.594   7.650   5.997  1.00  0.00     0.263 C 
HETATM    9  O   UNL     1      62.804   7.517   6.919  1.00  0.00    -0.265 OA
BRANCH   8  10
HETATM   10  O   UNL     1      64.917   7.972   6.146  1.00  0.00    -0.322 OA
BRANCH  10  11
HETATM   11  C   UNL     1      65.861   7.023   5.626  1.00  0.00     0.174 C 
HETATM   12  C   UNL     1      67.014   7.733   4.939  1.00  0.00     0.034 C 
ENDBRANCH  10  11
ENDBRANCH   8  10
ENDBRANCH   7   8
ENDBRANCH   1   7
BRANCH   2  13
HETATM   13  N   UNL     1      61.535  12.204   1.799  1.00  0.00    -0.399 N 
HETATM   14  H   UNL     1      61.344  12.175   0.834  1.00  0.00     0.156 HD
HETATM   15  H   UNL     1      61.522  13.066   2.277  1.00  0.00     0.156 HD
ENDBRANCH   2  13
TORSDOF 5
ENDMDL
MODEL 3
REMARK VINA RESULT:      -4.8      3.845      5.412
REMARK  5 active torsions:
REMARK  status: ('A' for Active; 'I' for Inactive)
REMARK    1  A    between atoms: C_1  and  C_3 
REMARK    2  A    between atoms: C_1  and  O_7 
REMARK    3  A    between atoms: C_3  and  C_4 
REMARK    4  A    between atoms: C_5  and  N_6 
REMARK    5  A    between atoms: O_7  and  C_12 
ROOT
HETATM    1  C   UNL     1      62.256   9.406   2.582  1.00  0.00    -0.049 A 
HETATM    2  C   UNL     1      62.840  10.628   5.067  1.00  0.00     0.025 A 
HETATM    3  C   UNL     1      62.119  11.313   4.085  1.00  0.00     0.029 A 
HETATM    4  C   UNL     1      63.314   9.350   4.771  1.00  0.00     0.029 A 
HETATM    5  C   UNL     1      63.005   8.729   3.554  1.00  0.00     0.010 A 
HETATM    6  C   UNL     1      61.809  10.703   2.865  1.00  0.00     0.010 A 
ENDROOT
BRANCH   1   7
HETATM    7  C   UNL     1      61.966   8.777   1.239  1.00  0.00     0.149 C 
BRANCH   7   8
HETATM    8  C   UNL     1      60.634   8.065   1.135  1.00  0.00     0.263 C 
HETATM    9  O   UNL     1      59.634   8.473   0.566  1.00  0.00    -0.265 OA
BRANCH   8  10
HETATM   10  O   UNL     1      60.725   6.859   1.780  1.00  0.00    -0.322 OA
BRANCH  10  11
HETATM   11  C   UNL     1      59.585   6.472   2.562  1.00  0.00     0.174 C 
HETATM   12  C   UNL     1      59.562   7.219   3.883  1.00  0.00     0.034 C 
ENDBRANCH  10  11
ENDBRANCH   8  10
ENDBRANCH   7   8
ENDBRANCH   1   7
BRANCH   2  13
HETATM   13  N   UNL     1      63.276  11.301   6.214  1.00  0.00    -0.399 N 
HETATM   14  H   UNL     1      64.101  11.016   6.669  1.00  0.00     0.156 HD
HETATM   15  H   UNL     1      62.758  12.061   6.565  1.00  0.00     0.156 HD
ENDBRANCH   2  13
TORSDOF 5
ENDMDL
MODEL 4
REMARK VINA RESULT:      -4.7      1.210      1.863
REMARK  5 active torsions:
REMARK  status: ('A' for Active; 'I' for Inactive)
REMARK    1  A    between atoms: C_1  and  C_3 
REMARK    2  A    between atoms: C_1  and  O_7 
REMARK    3  A    between atoms: C_3  and  C_4 
REMARK    4  A    between atoms: C_5  and  N_6 
REMARK    5  A    between atoms: O_7  and  C_12 
ROOT
HETATM    1  C   UNL     1      63.327   8.715   4.711  1.00  0.00    -0.049 A 
HETATM    2  C   UNL     1      62.047  10.559   2.986  1.00  0.00     0.025 A 
HETATM    3  C   UNL     1      62.298  10.885   4.322  1.00  0.00     0.029 A 
HETATM    4  C   UNL     1      62.389   9.282   2.540  1.00  0.00     0.029 A 
HETATM    5  C   UNL     1      63.048   8.375   3.381  1.00  0.00     0.010 A 
HETATM    6  C   UNL     1      62.952   9.985   5.170  1.00  0.00     0.010 A 
ENDROOT
BRANCH   1   7
HETATM    7  C   UNL     1      63.980   7.729   5.650  1.00  0.00     0.149 C 
BRANCH   7   8
HETATM    8  C   UNL     1      65.475   7.894   5.821  1.00  0.00     0.263 C 
HETATM    9  O   UNL     1      66.054   8.884   6.241  1.00  0.00    -0.265 OA
BRANCH   8  10
HETATM   10  O   UNL     1      66.096   6.735   5.436  1.00  0.00    -0.322 OA
BRANCH  10  11
HETATM   11  C   UNL     1      67.444   6.555   5.897  1.00  0.00     0.174 C 
HETATM   12  C   UNL     1      67.685   5.111   6.299  1.00  0.00     0.034 C 
ENDBRANCH  10  11
ENDBRANCH   8  10
ENDBRANCH   7   8
ENDBRANCH   1   7
BRANCH   2  13
HETATM   13  N   UNL     1      61.257  11.401   2.196  1.00  0.00    -0.399 N 
HETATM   14  H   UNL     1      60.867  12.218   2.582  1.00  0.00     0.156 HD
HETATM   15  H   UNL     1      61.090  11.176   1.252  1.00  0.00     0.156 HD
ENDBRANCH   2  13
TORSDOF 5
ENDMDL
MODEL 5
REMARK VINA RESULT:      -4.6      1.987      2.869
REMARK  5 active torsions:
REMARK  status: ('A' for Active; 'I' for Inactive)
REMARK    1  A    between atoms: C_1  and  C_3 
REMARK    2  A    between atoms: C_1  and  O_7 
REMARK    3  A    between atoms: C_3  and  C_4 
REMARK    4  A    between atoms: C_5  and  N_6 
REMARK    5  A    between atoms: O_7  and  C_12 
ROOT
HETATM    1  C   UNL     1      63.444   8.801   4.790  1.00  0.00    -0.049 A 
HETATM    2  C   UNL     1      61.966  10.496   3.071  1.00  0.00     0.025 A 
HETATM    3  C   UNL     1      62.407   9.244   2.635  1.00  0.00     0.029 A 
HETATM    4  C   UNL     1      62.322  10.914   4.354  1.00  0.00     0.029 A 
HETATM    5  C   UNL     1      63.029  10.069   5.219  1.00  0.00     0.010 A 
HETATM    6  C   UNL     1      63.117   8.394   3.490  1.00  0.00     0.010 A 
ENDROOT
BRANCH   1   7
HETATM    7  C   UNL     1      64.262   7.901   5.686  1.00  0.00     0.149 C 
BRANCH   7   8
HETATM    8  C   UNL     1      63.522   6.703   6.244  1.00  0.00     0.263 C 
HETATM    9  O   UNL     1      63.932   5.553   6.293  1.00  0.00    -0.265 OA
BRANCH   8  10
HETATM   10  O   UNL     1      62.300   7.114   6.708  1.00  0.00    -0.322 OA
BRANCH  10  11
HETATM   11  C   UNL     1      61.221   6.177   6.562  1.00  0.00     0.174 C 
HETATM   12  C   UNL     1      60.541   6.347   5.216  1.00  0.00     0.034 C 
ENDBRANCH  10  11
ENDBRANCH   8  10
ENDBRANCH   7   8
ENDBRANCH   1   7
BRANCH   2  13
HETATM   13  N   UNL     1      61.397  11.395   2.162  1.00  0.00    -0.399 N 
HETATM   14  H   UNL     1      60.538  11.183   1.731  1.00  0.00     0.156 HD
HETATM   15  H   UNL     1      61.857  12.241   1.953  1.00  0.00     0.156 HD
ENDBRANCH   2  13
TORSDOF 5
ENDMDL
MODEL 6
REMARK VINA RESULT:      -4.5      3.541      5.660
REMARK  5 active torsions:
REMARK  status: ('A' for Active; 'I' for Inactive)
REMARK    1  A    between atoms: C_1  and  C_3 
REMARK    2  A    between atoms: C_1  and  O_7 
REMARK    3  A    between atoms: C_3  and  C_4 
REMARK    4  A    between atoms: C_5  and  N_6 
REMARK    5  A    between atoms: O_7  and  C_12 
ROOT
HETATM    1  C   UNL     1      63.508   8.070   4.264  1.00  0.00    -0.049 A 
HETATM    2  C   UNL     1      66.120   6.979   4.321  1.00  0.00     0.025 A 
HETATM    3  C   UNL     1      65.794   8.095   5.096  1.00  0.00     0.029 A 
HETATM    4  C   UNL     1      65.143   6.452   3.475  1.00  0.00     0.029 A 
HETATM    5  C   UNL     1      63.842   6.970   3.463  1.00  0.00     0.010 A 
HETATM    6  C   UNL     1      64.498   8.622   5.088  1.00  0.00     0.010 A 
ENDROOT
BRANCH   1   7
HETATM    7  C   UNL     1      62.128   8.681   4.218  1.00  0.00     0.149 C 
BRANCH   7   8
HETATM    8  C   UNL     1      62.056  10.068   3.615  1.00  0.00     0.263 C 
HETATM    9  O   UNL     1      61.778  11.103   4.201  1.00  0.00    -0.265 OA
BRANCH   8  10
HETATM   10  O   UNL     1      62.370   9.988   2.284  1.00  0.00    -0.322 OA
BRANCH  10  11
HETATM   11  C   UNL     1      61.442   9.270   1.456  1.00  0.00     0.174 C 
HETATM   12  C   UNL     1      62.177   8.418   0.439  1.00  0.00     0.034 C 
ENDBRANCH  10  11
ENDBRANCH   8  10
ENDBRANCH   7   8
ENDBRANCH   1   7
BRANCH   2  13
HETATM   13  N   UNL     1      67.451   6.562   4.218  1.00  0.00    -0.399 N 
HETATM   14  H   UNL     1      68.182   7.186   4.430  1.00  0.00     0.156 HD
HETATM   15  H   UNL     1      67.657   5.641   3.934  1.00  0.00     0.156 HD
ENDBRANCH   2  13
TORSDOF 5
ENDMDL
MODEL 7
REMARK VINA RESULT:      -4.3      1.389      2.132
REMARK  5 active torsions:
REMARK  status: ('A' for Active; 'I' for Inactive)
REMARK    1  A    between atoms: C_1  and  C_3 
REMARK    2  A    between atoms: C_1  and  O_7 
REMARK    3  A    between atoms: C_3  and  C_4 
REMARK    4  A    between atoms: C_5  and  N_6 
REMARK    5  A    between atoms: O_7  and  C_12 
ROOT
HETATM    1  C   UNL     1      63.751   8.479   4.202  1.00  0.00    -0.049 A 
HETATM    2  C   UNL     1      61.625   8.868   2.375  1.00  0.00     0.025 A 
HETATM    3  C   UNL     1      61.826   9.754   3.437  1.00  0.00     0.029 A 
HETATM    4  C   UNL     1      62.462   7.756   2.272  1.00  0.00     0.029 A 
HETATM    5  C   UNL     1      63.532   7.573   3.156  1.00  0.00     0.010 A 
HETATM    6  C   UNL     1      62.890   9.578   4.327  1.00  0.00     0.010 A 
ENDROOT
BRANCH   1   7
HETATM    7  C   UNL     1      64.862   8.265   5.204  1.00  0.00     0.149 C 
BRANCH   7   8
HETATM    8  C   UNL     1      64.541   7.301   6.326  1.00  0.00     0.263 C 
HETATM    9  O   UNL     1      63.488   7.225   6.941  1.00  0.00    -0.265 OA
BRANCH   8  10
HETATM   10  O   UNL     1      65.630   6.500   6.547  1.00  0.00    -0.322 OA
BRANCH  10  11
HETATM   11  C   UNL     1      66.618   7.011   7.455  1.00  0.00     0.174 C 
HETATM   12  C   UNL     1      66.418   6.437   8.845  1.00  0.00     0.034 C 
ENDBRANCH  10  11
ENDBRANCH   8  10
ENDBRANCH   7   8
ENDBRANCH   1   7
BRANCH   2  13
HETATM   13  N   UNL     1      60.471   8.967   1.589  1.00  0.00    -0.399 N 
HETATM   14  H   UNL     1      60.545   9.021   0.609  1.00  0.00     0.156 HD
HETATM   15  H   UNL     1      59.584   8.982   2.018  1.00  0.00     0.156 HD
ENDBRANCH   2  13
TORSDOF 5
ENDMDL
MODEL 8
REMARK VINA RESULT:      -4.3      3.413      6.003
REMARK  5 active torsions:
REMARK  status: ('A' for Active; 'I' for Inactive)
REMARK    1  A    between atoms: C_1  and  C_3 
REMARK    2  A    between atoms: C_1  and  O_7 
REMARK    3  A    between atoms: C_3  and  C_4 
REMARK    4  A    between atoms: C_5  and  N_6 
REMARK    5  A    between atoms: O_7  and  C_12 
ROOT
HETATM    1  C   UNL     1      65.180   7.486   5.834  1.00  0.00    -0.049 A 
HETATM    2  C   UNL     1      66.046   5.691   7.845  1.00  0.00     0.025 A 
HETATM    3  C   UNL     1      66.769   6.854   7.564  1.00  0.00     0.029 A 
HETATM    4  C   UNL     1      64.920   5.408   7.071  1.00  0.00     0.029 A 
HETATM    5  C   UNL     1      64.471   6.306   6.093  1.00  0.00     0.010 A 
HETATM    6  C   UNL     1      66.331   7.754   6.587  1.00  0.00     0.010 A 
ENDROOT
BRANCH   1   7
HETATM    7  C   UNL     1      64.747   8.435   4.741  1.00  0.00     0.149 C 
BRANCH   7   8
HETATM    8  C   UNL     1      63.842   9.563   5.188  1.00  0.00     0.263 C 
HETATM    9  O   UNL     1      64.155  10.513   5.890  1.00  0.00    -0.265 OA
BRANCH   8  10
HETATM   10  O   UNL     1      62.591   9.360   4.667  1.00  0.00    -0.322 OA
BRANCH  10  11
HETATM   11  C   UNL     1      62.037  10.448   3.910  1.00  0.00     0.174 C 
HETATM   12  C   UNL     1      61.955  10.091   2.438  1.00  0.00     0.034 C 
ENDBRANCH  10  11
ENDBRANCH   8  10
ENDBRANCH   7   8
ENDBRANCH   1   7
BRANCH   2  13
HETATM   13  N   UNL     1      66.577   4.728   8.709  1.00  0.00    -0.399 N 
HETATM   14  H   UNL     1      66.151   4.559   9.581  1.00  0.00     0.156 HD
HETATM   15  H   UNL     1      67.377   4.217   8.445  1.00  0.00     0.156 HD
ENDBRANCH   2  13
TORSDOF 5
ENDMDL
MODEL 9
REMARK VINA RESULT:      -4.0      3.781      4.881
REMARK  5 active torsions:
REMARK  status: ('A' for Active; 'I' for Inactive)
REMARK    1  A    between atoms: C_1  and  C_3 
REMARK    2  A    between atoms: C_1  and  O_7 
REMARK    3  A    between atoms: C_3  and  C_4 
REMARK    4  A    between atoms: C_5  and  N_6 
REMARK    5  A    between atoms: O_7  and  C_12 
ROOT
HETATM    1  C   UNL     1      62.194   8.198   3.251  1.00  0.00    -0.049 A 
HETATM    2  C   UNL     1      61.973  10.849   2.284  1.00  0.00     0.025 A 
HETATM    3  C   UNL     1      62.013  10.589   3.657  1.00  0.00     0.029 A 
HETATM    4  C   UNL     1      61.987   9.766   1.404  1.00  0.00     0.029 A 
HETATM    5  C   UNL     1      62.123   8.454   1.875  1.00  0.00     0.010 A 
HETATM    6  C   UNL     1      62.146   9.282   4.137  1.00  0.00     0.010 A 
ENDROOT
BRANCH   1   7
HETATM    7  C   UNL     1      62.278   6.785   3.781  1.00  0.00     0.149 C 
BRANCH   7   8
HETATM    8  C   UNL     1      60.987   5.997   3.722  1.00  0.00     0.263 C 
HETATM    9  O   UNL     1      60.675   5.174   2.875  1.00  0.00    -0.265 OA
BRANCH   8  10
HETATM   10  O   UNL     1      60.207   6.344   4.794  1.00  0.00    -0.322 OA
BRANCH  10  11
HETATM   11  C   UNL     1      58.790   6.381   4.560  1.00  0.00     0.174 C 
HETATM   12  C   UNL     1      58.396   7.663   3.851  1.00  0.00     0.034 C 
ENDBRANCH  10  11
ENDBRANCH   8  10
ENDBRANCH   7   8
ENDBRANCH   1   7
BRANCH   2  13
HETATM   13  N   UNL     1      61.684  12.138   1.823  1.00  0.00    -0.399 N 
HETATM   14  H   UNL     1      62.033  12.923   2.302  1.00  0.00     0.156 HD
HETATM   15  H   UNL     1      61.131  12.259   1.017  1.00  0.00     0.156 HD
ENDBRANCH   2  13
TORSDOF 5
ENDMDL
