MODEL 1
REMARK VINA RESULT:      -3.9      0.000      0.000
REMARK  2 active torsions:
REMARK  status: ('A' for Active; 'I' for Inactive)
REMARK    1  A    between atoms: C_1  and  C_2 
REMARK    2  A    between atoms: C_2  and  O_8 
ROOT
HETATM    1  C   UNL     1      62.742   9.630   4.235  1.00  0.00     0.080 A 
HETATM    2  S   UNL     1      62.590   8.708   2.795  1.00  0.00    -0.096 SA
HETATM    3  C   UNL     1      62.250  10.912   4.055  1.00  0.00     0.025 A 
HETATM    4  C   UNL     1      61.876  10.010   1.950  1.00  0.00     0.050 A 
HETATM    5  C   UNL     1      61.751  11.130   2.737  1.00  0.00     0.009 A 
ENDROOT
BRANCH   1   6
HETATM    6  C   UNL     1      63.329   9.016   5.412  1.00  0.00     0.299 C 
HETATM    7  O   UNL     1      62.753   8.303   6.227  1.00  0.00    -0.259 OA
BRANCH   6   8
HETATM    8  O   UNL     1      64.652   9.350   5.498  1.00  0.00    -0.322 OA
HETATM    9  C   UNL     1      65.539   8.236   5.386  1.00  0.00     0.213 C 
ENDBRANCH   6   8
ENDBRANCH   1   6
TORSDOF 2
ENDMDL
MODEL 2
REMARK VINA RESULT:      -3.7      2.190      3.070
REMARK  2 active torsions:
REMARK  status: ('A' for Active; 'I' for Inactive)
REMARK    1  A    between atoms: C_1  and  C_2 
REMARK    2  A    between atoms: C_2  and  O_8 
ROOT
HETATM    1  C   UNL     1      61.792   9.632   2.639  1.00  0.00     0.080 A 
HETATM    2  S   UNL     1      61.058   8.175   3.175  1.00  0.00    -0.096 SA
HETATM    3  C   UNL     1      62.048   9.585   1.279  1.00  0.00     0.025 A 
HETATM    4  C   UNL     1      61.084   7.499   1.605  1.00  0.00     0.050 A 
HETATM    5  C   UNL     1      61.639   8.355   0.683  1.00  0.00     0.009 A 
ENDROOT
BRANCH   1   6
HETATM    6  C   UNL     1      62.052  10.690   3.598  1.00  0.00     0.299 C 
HETATM    7  O   UNL     1      61.878  11.891   3.424  1.00  0.00    -0.259 OA
BRANCH   6   8
HETATM    8  O   UNL     1      62.535  10.154   4.760  1.00  0.00    -0.322 OA
HETATM    9  C   UNL     1      62.945  11.127   5.720  1.00  0.00     0.213 C 
ENDBRANCH   6   8
ENDBRANCH   1   6
TORSDOF 2
ENDMDL
MODEL 3
REMARK VINA RESULT:      -3.6      1.650      2.294
REMARK  2 active torsions:
REMARK  status: ('A' for Active; 'I' for Inactive)
REMARK    1  A    between atoms: C_1  and  C_2 
REMARK    2  A    between atoms: C_2  and  O_8 
ROOT
HETATM    1  C   UNL     1      63.728   8.983   4.640  1.00  0.00     0.080 A 
HETATM    2  S   UNL     1      62.963  10.430   5.157  1.00  0.00    -0.096 SA
HETATM    3  C   UNL     1      63.154   8.510   3.471  1.00  0.00     0.025 A 
HETATM    4  C   UNL     1      61.883  10.418   3.833  1.00  0.00     0.050 A 
HETATM    5  C   UNL     1      62.090   9.339   3.007  1.00  0.00     0.009 A 
ENDROOT
BRANCH   1   6
HETATM    6  C   UNL     1      64.823   8.439   5.424  1.00  0.00     0.299 C 
HETATM    7  O   UNL     1      66.020   8.566   5.191  1.00  0.00    -0.259 OA
BRANCH   6   8
HETATM    8  O   UNL     1      64.327   7.743   6.491  1.00  0.00    -0.322 OA
HETATM    9  C   UNL     1      65.091   6.586   6.832  1.00  0.00     0.213 C 
ENDBRANCH   6   8
ENDBRANCH   1   6
TORSDOF 2
ENDMDL
MODEL 4
REMARK VINA RESULT:      -3.4      4.620      6.564
REMARK  2 active torsions:
REMARK  status: ('A' for Active; 'I' for Inactive)
REMARK    1  A    between atoms: C_1  and  C_2 
REMARK    2  A    between atoms: C_2  and  O_8 
ROOT
HETATM    1  C   UNL     1      66.223   6.378   7.803  1.00  0.00     0.080 A 
HETATM    2  S   UNL     1      66.317   4.687   7.521  1.00  0.00    -0.096 SA
HETATM    3  C   UNL     1      67.149   6.773   8.754  1.00  0.00     0.025 A 
HETATM    4  C   UNL     1      67.580   4.494   8.655  1.00  0.00     0.050 A 
HETATM    5  C   UNL     1      67.931   5.686   9.244  1.00  0.00     0.009 A 
ENDROOT
BRANCH   1   6
HETATM    6  C   UNL     1      65.250   7.167   7.069  1.00  0.00     0.299 C 
HETATM    7  O   UNL     1      64.041   6.972   7.019  1.00  0.00    -0.259 OA
BRANCH   6   8
HETATM    8  O   UNL     1      65.881   8.190   6.417  1.00  0.00    -0.322 OA
HETATM    9  C   UNL     1      66.442   7.816   5.158  1.00  0.00     0.213 C 
ENDBRANCH   6   8
ENDBRANCH   1   6
TORSDOF 2
ENDMDL
MODEL 5
REMARK VINA RESULT:      -3.3      2.813      4.209
REMARK  2 active torsions:
REMARK  status: ('A' for Active; 'I' for Inactive)
REMARK    1  A    between atoms: C_1  and  C_2 
REMARK    2  A    between atoms: C_2  and  O_8 
ROOT
HETATM    1  C   UNL     1      62.065   9.633   2.829  1.00  0.00     0.080 A 
HETATM    2  S   UNL     1      62.824   8.678   4.037  1.00  0.00    -0.096 SA
HETATM    3  C   UNL     1      61.902  10.939   3.262  1.00  0.00     0.025 A 
HETATM    4  C   UNL     1      62.932   9.997   5.116  1.00  0.00     0.050 A 
HETATM    5  C   UNL     1      62.403  11.148   4.581  1.00  0.00     0.009 A 
ENDROOT
BRANCH   1   6
HETATM    6  C   UNL     1      61.695   9.020   1.566  1.00  0.00     0.299 C 
HETATM    7  O   UNL     1      62.325   9.078   0.516  1.00  0.00    -0.259 OA
BRANCH   6   8
HETATM    8  O   UNL     1      60.513   8.347   1.706  1.00  0.00    -0.322 OA
HETATM    9  C   UNL     1      59.870   8.043   0.468  1.00  0.00     0.213 C 
ENDBRANCH   6   8
ENDBRANCH   1   6
TORSDOF 2
ENDMDL
MODEL 6
REMARK VINA RESULT:      -3.2      2.302      2.971
REMARK  2 active torsions:
REMARK  status: ('A' for Active; 'I' for Inactive)
REMARK    1  A    between atoms: C_1  and  C_2 
REMARK    2  A    between atoms: C_2  and  O_8 
ROOT
HETATM    1  C   UNL     1      64.762   8.011   4.945  1.00  0.00     0.080 A 
HETATM    2  S   UNL     1      64.662   6.843   3.691  1.00  0.00    -0.096 SA
HETATM    3  C   UNL     1      63.761   8.960   4.817  1.00  0.00     0.025 A 
HETATM    4  C   UNL     1      63.297   7.600   2.995  1.00  0.00     0.050 A 
HETATM    5  C   UNL     1      62.917   8.722   3.693  1.00  0.00     0.009 A 
ENDROOT
BRANCH   1   6
HETATM    6  C   UNL     1      65.812   7.895   5.940  1.00  0.00     0.299 C 
HETATM    7  O   UNL     1      66.366   8.819   6.527  1.00  0.00    -0.259 OA
BRANCH   6   8
HETATM    8  O   UNL     1      66.114   6.577   6.144  1.00  0.00    -0.322 OA
HETATM    9  C   UNL     1      67.452   6.352   6.589  1.00  0.00     0.213 C 
ENDBRANCH   6   8
ENDBRANCH   1   6
TORSDOF 2
ENDMDL
MODEL 7
REMARK VINA RESULT:      -3.1      3.684      5.827
REMARK  2 active torsions:
REMARK  status: ('A' for Active; 'I' for Inactive)
REMARK    1  A    between atoms: C_1  and  C_2 
REMARK    2  A    between atoms: C_2  and  O_8 
ROOT
HETATM    1  C   UNL     1      66.134   7.092   6.581  1.00  0.00     0.080 A 
HETATM    2  S   UNL     1      67.605   6.552   5.880  1.00  0.00    -0.096 SA
HETATM    3  C   UNL     1      66.019   6.651   7.889  1.00  0.00     0.025 A 
HETATM    4  C   UNL     1      68.075   5.743   7.310  1.00  0.00     0.050 A 
HETATM    5  C   UNL     1      67.138   5.873   8.308  1.00  0.00     0.009 A 
ENDROOT
BRANCH   1   6
HETATM    6  C   UNL     1      65.225   7.899   5.788  1.00  0.00     0.299 C 
HETATM    7  O   UNL     1      65.241   9.120   5.677  1.00  0.00    -0.259 OA
BRANCH   6   8
HETATM    8  O   UNL     1      64.314   7.093   5.163  1.00  0.00    -0.322 OA
HETATM    9  C   UNL     1      64.432   7.081   3.740  1.00  0.00     0.213 C 
ENDBRANCH   6   8
ENDBRANCH   1   6
TORSDOF 2
ENDMDL
MODEL 8
REMARK VINA RESULT:      -3.0     12.213     13.511
REMARK  2 active torsions:
REMARK  status: ('A' for Active; 'I' for Inactive)
REMARK    1  A    between atoms: C_1  and  C_2 
REMARK    2  A    between atoms: C_2  and  O_8 
ROOT
HETATM    1  C   UNL     1      57.047   2.158  13.353  1.00  0.00     0.080 A 
HETATM    2  S   UNL     1      57.612   2.438  11.756  1.00  0.00    -0.096 SA
HETATM    3  C   UNL     1      58.061   1.665  14.157  1.00  0.00     0.025 A 
HETATM    4  C   UNL     1      59.190   1.907  12.143  1.00  0.00     0.050 A 
HETATM    5  C   UNL     1      59.296   1.521  13.458  1.00  0.00     0.009 A 
ENDROOT
BRANCH   1   6
HETATM    6  C   UNL     1      55.661   2.446  13.675  1.00  0.00     0.299 C 
HETATM    7  O   UNL     1      54.909   1.747  14.345  1.00  0.00    -0.259 OA
BRANCH   6   8
HETATM    8  O   UNL     1      55.292   3.637  13.115  1.00  0.00    -0.322 OA
HETATM    9  C   UNL     1      54.311   4.352  13.866  1.00  0.00     0.213 C 
ENDBRANCH   6   8
ENDBRANCH   1   6
TORSDOF 2
ENDMDL
MODEL 9
REMARK VINA RESULT:      -3.0      2.606      2.835
REMARK  2 active torsions:
REMARK  status: ('A' for Active; 'I' for Inactive)
REMARK    1  A    between atoms: C_1  and  C_2 
REMARK    2  A    between atoms: C_2  and  O_8 
ROOT
HETATM    1  C   UNL     1      62.126   9.061   2.726  1.00  0.00     0.080 A 
HETATM    2  S   UNL     1      62.154  10.012   4.156  1.00  0.00    -0.096 SA
HETATM    3  C   UNL     1      61.931   9.855   1.608  1.00  0.00     0.025 A 
HETATM    4  C   UNL     1      61.910  11.461   3.284  1.00  0.00     0.050 A 
HETATM    5  C   UNL     1      61.806  11.239   1.931  1.00  0.00     0.009 A 
ENDROOT
BRANCH   1   6
HETATM    6  C   UNL     1      62.298   7.623   2.827  1.00  0.00     0.299 C 
HETATM    7  O   UNL     1      61.489   6.823   3.284  1.00  0.00    -0.259 OA
BRANCH   6   8
HETATM    8  O   UNL     1      63.521   7.266   2.331  1.00  0.00    -0.322 OA
HETATM    9  C   UNL     1      63.874   5.906   2.584  1.00  0.00     0.213 C 
ENDBRANCH   6   8
ENDBRANCH   1   6
TORSDOF 2
ENDMDL
