MODEL 1
REMARK VINA RESULT:      -5.1      0.000      0.000
REMARK  0 active torsions:
REMARK  status: ('A' for Active; 'I' for Inactive)
ROOT
HETATM    1  N   UNL     1      62.816   9.556   5.643  1.00  0.00    -0.326 N 
HETATM    2  C   UNL     1      63.177   8.215   5.712  1.00  0.00     0.226 A 
HETATM    3  C   UNL     1      62.488   9.920   4.347  1.00  0.00     0.041 A 
HETATM    4  C   UNL     1      62.622   8.820   3.502  1.00  0.00    -0.023 A 
HETATM    5  C   UNL     1      63.084   7.636   4.297  1.00  0.00     0.144 A 
HETATM    6  O   UNL     1      63.508   7.619   6.724  1.00  0.00    -0.273 OA
HETATM    7  C   UNL     1      62.082  11.157   3.897  1.00  0.00     0.030 A 
HETATM    8  C   UNL     1      62.342   8.928   2.153  1.00  0.00     0.010 A 
HETATM    9  C   UNL     1      61.799  11.278   2.534  1.00  0.00     0.002 A 
HETATM   10  C   UNL     1      61.927  10.173   1.670  1.00  0.00     0.001 A 
HETATM   11  H   UNL     1      62.796  10.167   6.414  1.00  0.00     0.169 HD
ENDROOT
TORSDOF 0
ENDMDL
MODEL 2
REMARK VINA RESULT:      -5.1      1.588      2.579
REMARK  0 active torsions:
REMARK  status: ('A' for Active; 'I' for Inactive)
ROOT
HETATM    1  N   UNL     1      63.277   9.441   4.988  1.00  0.00    -0.326 N 
HETATM    2  C   UNL     1      62.914  10.728   5.368  1.00  0.00     0.226 A 
HETATM    3  C   UNL     1      62.854   9.161   3.699  1.00  0.00     0.041 A 
HETATM    4  C   UNL     1      62.185  10.265   3.173  1.00  0.00    -0.023 A 
HETATM    5  C   UNL     1      62.155  11.360   4.196  1.00  0.00     0.144 A 
HETATM    6  O   UNL     1      63.158  11.248   6.444  1.00  0.00    -0.273 OA
HETATM    7  C   UNL     1      63.033   7.995   2.988  1.00  0.00     0.030 A 
HETATM    8  C   UNL     1      61.672  10.234   1.890  1.00  0.00     0.010 A 
HETATM    9  C   UNL     1      62.516   7.953   1.691  1.00  0.00     0.002 A 
HETATM   10  C   UNL     1      61.842   9.063   1.147  1.00  0.00     0.001 A 
HETATM   11  H   UNL     1      63.772   8.811   5.559  1.00  0.00     0.169 HD
ENDROOT
TORSDOF 0
ENDMDL
MODEL 3
REMARK VINA RESULT:      -5.0      2.083      3.351
REMARK  0 active torsions:
REMARK  status: ('A' for Active; 'I' for Inactive)
ROOT
HETATM    1  N   UNL     1      62.446   9.842   4.101  1.00  0.00    -0.326 N 
HETATM    2  C   UNL     1      62.024  11.104   3.700  1.00  0.00     0.226 A 
HETATM    3  C   UNL     1      62.503   8.968   3.028  1.00  0.00     0.041 A 
HETATM    4  C   UNL     1      62.115   9.628   1.863  1.00  0.00    -0.023 A 
HETATM    5  C   UNL     1      61.764  11.048   2.191  1.00  0.00     0.144 A 
HETATM    6  O   UNL     1      61.886  12.073   4.429  1.00  0.00    -0.273 OA
HETATM    7  C   UNL     1      62.879   7.642   3.039  1.00  0.00     0.030 A 
HETATM    8  C   UNL     1      62.097   8.967   0.649  1.00  0.00     0.010 A 
HETATM    9  C   UNL     1      62.861   6.964   1.817  1.00  0.00     0.002 A 
HETATM   10  C   UNL     1      62.475   7.621   0.634  1.00  0.00     0.001 A 
HETATM   11  H   UNL     1      62.675   9.600   5.027  1.00  0.00     0.169 HD
ENDROOT
TORSDOF 0
ENDMDL
MODEL 4
REMARK VINA RESULT:      -5.0      1.649      2.138
REMARK  0 active torsions:
REMARK  status: ('A' for Active; 'I' for Inactive)
ROOT
HETATM    1  N   UNL     1      62.289  11.212   4.320  1.00  0.00    -0.326 N 
HETATM    2  C   UNL     1      62.952  10.710   5.433  1.00  0.00     0.226 A 
HETATM    3  C   UNL     1      62.248  10.278   3.297  1.00  0.00     0.041 A 
HETATM    4  C   UNL     1      62.892   9.110   3.702  1.00  0.00    -0.023 A 
HETATM    5  C   UNL     1      63.408   9.285   5.098  1.00  0.00     0.144 A 
HETATM    6  O   UNL     1      63.135  11.306   6.482  1.00  0.00    -0.273 OA
HETATM    7  C   UNL     1      61.676  10.416   2.052  1.00  0.00     0.030 A 
HETATM    8  C   UNL     1      62.977   8.021   2.855  1.00  0.00     0.010 A 
HETATM    9  C   UNL     1      61.759   9.322   1.187  1.00  0.00     0.002 A 
HETATM   10  C   UNL     1      62.402   8.135   1.585  1.00  0.00     0.001 A 
HETATM   11  H   UNL     1      61.899  12.113   4.265  1.00  0.00     0.169 HD
ENDROOT
TORSDOF 0
ENDMDL
MODEL 5
REMARK VINA RESULT:      -4.7      1.012      1.942
REMARK  0 active torsions:
REMARK  status: ('A' for Active; 'I' for Inactive)
ROOT
HETATM    1  N   UNL     1      63.334   7.723   4.179  1.00  0.00    -0.326 N 
HETATM    2  C   UNL     1      63.453   8.284   5.445  1.00  0.00     0.226 A 
HETATM    3  C   UNL     1      62.800   8.629   3.278  1.00  0.00     0.041 A 
HETATM    4  C   UNL     1      62.542   9.838   3.923  1.00  0.00    -0.023 A 
HETATM    5  C   UNL     1      62.927   9.722   5.367  1.00  0.00     0.144 A 
HETATM    6  O   UNL     1      63.897   7.723   6.434  1.00  0.00    -0.273 OA
HETATM    7  C   UNL     1      62.540   8.432   1.939  1.00  0.00     0.030 A 
HETATM    8  C   UNL     1      62.011  10.909   3.229  1.00  0.00     0.010 A 
HETATM    9  C   UNL     1      62.000   9.508   1.230  1.00  0.00     0.002 A 
HETATM   10  C   UNL     1      61.740  10.735   1.868  1.00  0.00     0.001 A 
HETATM   11  H   UNL     1      63.595   6.802   3.952  1.00  0.00     0.169 HD
ENDROOT
TORSDOF 0
ENDMDL
MODEL 6
REMARK VINA RESULT:      -4.6      2.017      3.424
REMARK  0 active torsions:
REMARK  status: ('A' for Active; 'I' for Inactive)
ROOT
HETATM    1  N   UNL     1      63.335  10.288   5.337  1.00  0.00    -0.326 N 
HETATM    2  C   UNL     1      62.407  10.940   4.534  1.00  0.00     0.226 A 
HETATM    3  C   UNL     1      63.690   9.062   4.798  1.00  0.00     0.041 A 
HETATM    4  C   UNL     1      62.999   8.856   3.605  1.00  0.00    -0.023 A 
HETATM    5  C   UNL     1      62.111  10.032   3.335  1.00  0.00     0.144 A 
HETATM    6  O   UNL     1      61.921  12.037   4.756  1.00  0.00    -0.273 OA
HETATM    7  C   UNL     1      64.580   8.143   5.308  1.00  0.00     0.030 A 
HETATM    8  C   UNL     1      63.190   7.701   2.870  1.00  0.00     0.010 A 
HETATM    9  C   UNL     1      64.778   6.971   4.574  1.00  0.00     0.002 A 
HETATM   10  C   UNL     1      64.090   6.753   3.365  1.00  0.00     0.001 A 
HETATM   11  H   UNL     1      63.695  10.649   6.178  1.00  0.00     0.169 HD
ENDROOT
TORSDOF 0
ENDMDL
MODEL 7
REMARK VINA RESULT:      -4.4      2.325      3.109
REMARK  0 active torsions:
REMARK  status: ('A' for Active; 'I' for Inactive)
ROOT
HETATM    1  N   UNL     1      62.992   7.480   2.944  1.00  0.00    -0.326 N 
HETATM    2  C   UNL     1      62.736   7.124   1.625  1.00  0.00     0.226 A 
HETATM    3  C   UNL     1      62.670   8.808   3.176  1.00  0.00     0.041 A 
HETATM    4  C   UNL     1      62.185   9.386   2.004  1.00  0.00    -0.023 A 
HETATM    5  C   UNL     1      62.194   8.365   0.906  1.00  0.00     0.144 A 
HETATM    6  O   UNL     1      62.917   6.020   1.137  1.00  0.00    -0.273 OA
HETATM    7  C   UNL     1      62.785   9.508   4.356  1.00  0.00     0.030 A 
HETATM    8  C   UNL     1      61.787  10.709   1.982  1.00  0.00     0.010 A 
HETATM    9  C   UNL     1      62.387  10.848   4.344  1.00  0.00     0.002 A 
HETATM   10  C   UNL     1      61.891  11.442   3.168  1.00  0.00     0.001 A 
HETATM   11  H   UNL     1      63.353   6.869   3.625  1.00  0.00     0.169 HD
ENDROOT
TORSDOF 0
ENDMDL
MODEL 8
REMARK VINA RESULT:      -4.3      1.742      2.022
REMARK  0 active torsions:
REMARK  status: ('A' for Active; 'I' for Inactive)
ROOT
HETATM    1  N   UNL     1      64.995   8.724   5.909  1.00  0.00    -0.326 N 
HETATM    2  C   UNL     1      65.526   7.516   5.474  1.00  0.00     0.226 A 
HETATM    3  C   UNL     1      63.976   9.153   5.074  1.00  0.00     0.041 A 
HETATM    4  C   UNL     1      63.795   8.233   4.042  1.00  0.00    -0.023 A 
HETATM    5  C   UNL     1      64.776   7.111   4.200  1.00  0.00     0.144 A 
HETATM    6  O   UNL     1      66.429   6.898   6.015  1.00  0.00    -0.273 OA
HETATM    7  C   UNL     1      63.219  10.298   5.189  1.00  0.00     0.030 A 
HETATM    8  C   UNL     1      62.825   8.436   3.079  1.00  0.00     0.010 A 
HETATM    9  C   UNL     1      62.237  10.513   4.218  1.00  0.00     0.002 A 
HETATM   10  C   UNL     1      62.041   9.590   3.174  1.00  0.00     0.001 A 
HETATM   11  H   UNL     1      65.301   9.211   6.707  1.00  0.00     0.169 HD
ENDROOT
TORSDOF 0
ENDMDL
MODEL 9
REMARK VINA RESULT:      -4.1      2.328      3.862
REMARK  0 active torsions:
REMARK  status: ('A' for Active; 'I' for Inactive)
ROOT
HETATM    1  N   UNL     1      61.397   9.759   3.398  1.00  0.00    -0.326 N 
HETATM    2  C   UNL     1      62.055  10.818   4.013  1.00  0.00     0.226 A 
HETATM    3  C   UNL     1      61.751   8.548   3.970  1.00  0.00     0.041 A 
HETATM    4  C   UNL     1      62.670   8.765   4.997  1.00  0.00    -0.023 A 
HETATM    5  C   UNL     1      62.953  10.232   5.109  1.00  0.00     0.144 A 
HETATM    6  O   UNL     1      61.933  11.997   3.723  1.00  0.00    -0.273 OA
HETATM    7  C   UNL     1      61.303   7.291   3.628  1.00  0.00     0.030 A 
HETATM    8  C   UNL     1      63.171   7.705   5.730  1.00  0.00     0.010 A 
HETATM    9  C   UNL     1      61.807   6.214   4.362  1.00  0.00     0.002 A 
HETATM   10  C   UNL     1      62.730   6.419   5.404  1.00  0.00     0.001 A 
HETATM   11  H   UNL     1      60.761   9.856   2.654  1.00  0.00     0.169 HD
ENDROOT
TORSDOF 0
ENDMDL
