MODEL 1
REMARK VINA RESULT:      -3.8      0.000      0.000
REMARK  3 active torsions:
REMARK  status: ('A' for Active; 'I' for Inactive)
REMARK    1  A    between atoms: C_2  and  C_6 
REMARK    2  A    between atoms: C_6  and  C_8 
REMARK    3  A    between atoms: N_7  and  C_8 
ROOT
HETATM    1  C   UNL     1      62.184  10.925   4.236  1.00  0.00     0.073 C 
ENDROOT
BRANCH   1   2
HETATM    2  C   UNL     1      62.216   9.983   3.066  1.00  0.00    -0.016 A 
HETATM    3  S   UNL     1      62.731   8.363   3.275  1.00  0.00    -0.106 SA
HETATM    4  C   UNL     1      62.459   7.996   1.628  1.00  0.00     0.050 A 
HETATM    5  C   UNL     1      61.995   9.085   0.924  1.00  0.00     0.008 A 
HETATM    6  C   UNL     1      61.856  10.235   1.755  1.00  0.00     0.015 A 
ENDBRANCH   1   2
BRANCH   1   7
HETATM    7  C   UNL     1      62.994  10.389   5.422  1.00  0.00     0.234 C 
BRANCH   7   8
HETATM    8  N   UNL     1      63.609  11.477   6.182  1.00  0.00    -0.079 N 
HETATM    9  H   UNL     1      62.880  12.077   6.568  1.00  0.00     0.274 HD
HETATM   10  H   UNL     1      64.209  12.026   5.567  1.00  0.00     0.274 HD
HETATM   11  H   UNL     1      64.166  11.088   6.943  1.00  0.00     0.274 HD
ENDBRANCH   7   8
ENDBRANCH   1   7
TORSDOF 3
ENDMDL
MODEL 2
REMARK VINA RESULT:      -3.4      2.672      3.978
REMARK  3 active torsions:
REMARK  status: ('A' for Active; 'I' for Inactive)
REMARK    1  A    between atoms: C_2  and  C_6 
REMARK    2  A    between atoms: C_6  and  C_8 
REMARK    3  A    between atoms: N_7  and  C_8 
ROOT
HETATM    1  C   UNL     1      61.719   9.487   1.308  1.00  0.00     0.073 C 
ENDROOT
BRANCH   1   2
HETATM    2  C   UNL     1      62.088   9.862   2.715  1.00  0.00    -0.016 A 
HETATM    3  S   UNL     1      62.844   8.720   3.744  1.00  0.00    -0.106 SA
HETATM    4  C   UNL     1      62.951   9.847   5.025  1.00  0.00     0.050 A 
HETATM    5  C   UNL     1      62.413  11.068   4.685  1.00  0.00     0.008 A 
HETATM    6  C   UNL     1      61.913  11.078   3.351  1.00  0.00     0.015 A 
ENDBRANCH   1   2
BRANCH   1   7
HETATM    7  C   UNL     1      60.846   8.228   1.264  1.00  0.00     0.234 C 
BRANCH   7   8
HETATM    8  N   UNL     1      59.434   8.564   1.082  1.00  0.00    -0.079 N 
HETATM    9  H   UNL     1      59.345   9.558   0.868  1.00  0.00     0.274 HD
HETATM   10  H   UNL     1      58.921   8.355   1.939  1.00  0.00     0.274 HD
HETATM   11  H   UNL     1      59.050   8.015   0.313  1.00  0.00     0.274 HD
ENDBRANCH   7   8
ENDBRANCH   1   7
TORSDOF 3
ENDMDL
MODEL 3
REMARK VINA RESULT:      -3.4      1.713      2.155
REMARK  3 active torsions:
REMARK  status: ('A' for Active; 'I' for Inactive)
REMARK    1  A    between atoms: C_2  and  C_6 
REMARK    2  A    between atoms: C_6  and  C_8 
REMARK    3  A    between atoms: N_7  and  C_8 
ROOT
HETATM    1  C   UNL     1      62.951   9.373   5.222  1.00  0.00     0.073 C 
ENDROOT
BRANCH   1   2
HETATM    2  C   UNL     1      62.512   9.796   3.848  1.00  0.00    -0.016 A 
HETATM    3  S   UNL     1      62.517   8.672   2.555  1.00  0.00    -0.106 SA
HETATM    4  C   UNL     1      61.903   9.832   1.460  1.00  0.00     0.050 A 
HETATM    5  C   UNL     1      61.707  11.057   2.059  1.00  0.00     0.008 A 
HETATM    6  C   UNL     1      62.060  11.037   3.439  1.00  0.00     0.015 A 
ENDBRANCH   1   2
BRANCH   1   7
HETATM    7  C   UNL     1      64.351   8.750   5.207  1.00  0.00     0.234 C 
BRANCH   7   8
HETATM    8  N   UNL     1      64.498   7.743   6.257  1.00  0.00    -0.079 N 
HETATM    9  H   UNL     1      63.850   6.974   6.084  1.00  0.00     0.274 HD
HETATM   10  H   UNL     1      64.291   8.163   7.163  1.00  0.00     0.274 HD
HETATM   11  H   UNL     1      65.454   7.387   6.257  1.00  0.00     0.274 HD
ENDBRANCH   7   8
ENDBRANCH   1   7
TORSDOF 3
ENDMDL
MODEL 4
REMARK VINA RESULT:      -3.2      2.170      2.587
REMARK  3 active torsions:
REMARK  status: ('A' for Active; 'I' for Inactive)
REMARK    1  A    between atoms: C_2  and  C_6 
REMARK    2  A    between atoms: C_6  and  C_8 
REMARK    3  A    between atoms: N_7  and  C_8 
ROOT
HETATM    1  C   UNL     1      63.274   7.934   4.341  1.00  0.00     0.073 C 
ENDROOT
BRANCH   1   2
HETATM    2  C   UNL     1      62.691   9.037   3.504  1.00  0.00    -0.016 A 
HETATM    3  S   UNL     1      62.305  10.548   4.212  1.00  0.00    -0.106 SA
HETATM    4  C   UNL     1      61.781  11.188   2.715  1.00  0.00     0.050 A 
HETATM    5  C   UNL     1      61.885  10.269   1.695  1.00  0.00     0.008 A 
HETATM    6  C   UNL     1      62.410   9.025   2.150  1.00  0.00     0.015 A 
ENDBRANCH   1   2
BRANCH   1   7
HETATM    7  C   UNL     1      64.750   8.187   4.670  1.00  0.00     0.234 C 
BRANCH   7   8
HETATM    8  N   UNL     1      64.964   8.294   6.113  1.00  0.00    -0.079 N 
HETATM    9  H   UNL     1      64.504   7.514   6.584  1.00  0.00     0.274 HD
HETATM   10  H   UNL     1      64.572   9.173   6.451  1.00  0.00     0.274 HD
HETATM   11  H   UNL     1      65.964   8.268   6.312  1.00  0.00     0.274 HD
ENDBRANCH   7   8
ENDBRANCH   1   7
TORSDOF 3
ENDMDL
MODEL 5
REMARK VINA RESULT:      -3.1      3.191      4.496
REMARK  3 active torsions:
REMARK  status: ('A' for Active; 'I' for Inactive)
REMARK    1  A    between atoms: C_2  and  C_6 
REMARK    2  A    between atoms: C_6  and  C_8 
REMARK    3  A    between atoms: N_7  and  C_8 
ROOT
HETATM    1  C   UNL     1      63.747   9.074   4.513  1.00  0.00     0.073 C 
ENDROOT
BRANCH   1   2
HETATM    2  C   UNL     1      64.502   8.165   5.441  1.00  0.00    -0.016 A 
HETATM    3  S   UNL     1      63.689   6.901   6.264  1.00  0.00    -0.106 SA
HETATM    4  C   UNL     1      65.133   6.372   7.010  1.00  0.00     0.050 A 
HETATM    5  C   UNL     1      66.215   7.146   6.652  1.00  0.00     0.008 A 
HETATM    6  C   UNL     1      65.850   8.183   5.746  1.00  0.00     0.015 A 
ENDBRANCH   1   2
BRANCH   1   7
HETATM    7  C   UNL     1      62.858  10.060   5.278  1.00  0.00     0.234 C 
BRANCH   7   8
HETATM    8  N   UNL     1      63.656  11.085   5.951  1.00  0.00    -0.079 N 
HETATM    9  H   UNL     1      63.059  11.621   6.581  1.00  0.00     0.274 HD
HETATM   10  H   UNL     1      64.063  11.711   5.256  1.00  0.00     0.274 HD
HETATM   11  H   UNL     1      64.401  10.639   6.486  1.00  0.00     0.274 HD
ENDBRANCH   7   8
ENDBRANCH   1   7
TORSDOF 3
ENDMDL
MODEL 6
REMARK VINA RESULT:      -3.0     13.644     14.584
REMARK  3 active torsions:
REMARK  status: ('A' for Active; 'I' for Inactive)
REMARK    1  A    between atoms: C_2  and  C_6 
REMARK    2  A    between atoms: C_6  and  C_8 
REMARK    3  A    between atoms: N_7  and  C_8 
ROOT
HETATM    1  C   UNL     1      55.800   0.575  14.231  1.00  0.00     0.073 C 
ENDROOT
BRANCH   1   2
HETATM    2  C   UNL     1      57.118   1.073  13.710  1.00  0.00    -0.016 A 
HETATM    3  S   UNL     1      57.236   1.712  12.125  1.00  0.00    -0.106 SA
HETATM    4  C   UNL     1      58.900   2.054  12.317  1.00  0.00     0.050 A 
HETATM    5  C   UNL     1      59.366   1.680  13.558  1.00  0.00     0.008 A 
HETATM    6  C   UNL     1      58.337   1.112  14.363  1.00  0.00     0.015 A 
ENDBRANCH   1   2
BRANCH   1   7
HETATM    7  C   UNL     1      54.693   1.624  14.078  1.00  0.00     0.234 C 
BRANCH   7   8
HETATM    8  N   UNL     1      55.001   2.837  14.834  1.00  0.00    -0.079 N 
HETATM    9  H   UNL     1      54.179   3.443  14.856  1.00  0.00     0.274 HD
HETATM   10  H   UNL     1      55.773   3.331  14.387  1.00  0.00     0.274 HD
HETATM   11  H   UNL     1      55.263   2.587  15.788  1.00  0.00     0.274 HD
ENDBRANCH   7   8
ENDBRANCH   1   7
TORSDOF 3
ENDMDL
MODEL 7
REMARK VINA RESULT:      -3.0      2.796      3.876
REMARK  3 active torsions:
REMARK  status: ('A' for Active; 'I' for Inactive)
REMARK    1  A    between atoms: C_2  and  C_6 
REMARK    2  A    between atoms: C_6  and  C_8 
REMARK    3  A    between atoms: N_7  and  C_8 
ROOT
HETATM    1  C   UNL     1      62.708   9.110   3.440  1.00  0.00     0.073 C 
ENDROOT
BRANCH   1   2
HETATM    2  C   UNL     1      63.424   8.374   4.537  1.00  0.00    -0.016 A 
HETATM    3  S   UNL     1      62.558   7.342   5.594  1.00  0.00    -0.106 SA
HETATM    4  C   UNL     1      63.979   6.907   6.439  1.00  0.00     0.050 A 
HETATM    5  C   UNL     1      65.094   7.542   5.938  1.00  0.00     0.008 A 
HETATM    6  C   UNL     1      64.774   8.391   4.839  1.00  0.00     0.015 A 
ENDBRANCH   1   2
BRANCH   1   7
HETATM    7  C   UNL     1      62.077  10.413   3.945  1.00  0.00     0.234 C 
BRANCH   7   8
HETATM    8  N   UNL     1      61.636  11.256   2.835  1.00  0.00    -0.079 N 
HETATM    9  H   UNL     1      61.255  12.129   3.201  1.00  0.00     0.274 HD
HETATM   10  H   UNL     1      60.915  10.769   2.302  1.00  0.00     0.274 HD
HETATM   11  H   UNL     1      62.429  11.461   2.226  1.00  0.00     0.274 HD
ENDBRANCH   7   8
ENDBRANCH   1   7
TORSDOF 3
ENDMDL
MODEL 8
REMARK VINA RESULT:      -2.8      6.966      7.845
REMARK  3 active torsions:
REMARK  status: ('A' for Active; 'I' for Inactive)
REMARK    1  A    between atoms: C_2  and  C_6 
REMARK    2  A    between atoms: C_6  and  C_8 
REMARK    3  A    between atoms: N_7  and  C_8 
ROOT
HETATM    1  C   UNL     1      67.851   4.404   6.975  1.00  0.00     0.073 C 
ENDROOT
BRANCH   1   2
HETATM    2  C   UNL     1      67.473   5.798   6.560  1.00  0.00    -0.016 A 
HETATM    3  S   UNL     1      66.737   6.864   7.682  1.00  0.00    -0.106 SA
HETATM    4  C   UNL     1      66.672   8.129   6.535  1.00  0.00     0.050 A 
HETATM    5  C   UNL     1      67.189   7.750   5.316  1.00  0.00     0.008 A 
HETATM    6  C   UNL     1      67.651   6.403   5.330  1.00  0.00     0.015 A 
ENDBRANCH   1   2
BRANCH   1   7
HETATM    7  C   UNL     1      68.050   4.295   8.491  1.00  0.00     0.234 C 
BRANCH   7   8
HETATM    8  N   UNL     1      67.367   3.121   9.034  1.00  0.00    -0.079 N 
HETATM    9  H   UNL     1      67.519   2.322   8.417  1.00  0.00     0.274 HD
HETATM   10  H   UNL     1      66.367   3.310   9.104  1.00  0.00     0.274 HD
HETATM   11  H   UNL     1      67.739   2.909   9.960  1.00  0.00     0.274 HD
ENDBRANCH   7   8
ENDBRANCH   1   7
TORSDOF 3
ENDMDL
MODEL 9
REMARK VINA RESULT:      -2.8      3.925      4.688
REMARK  3 active torsions:
REMARK  status: ('A' for Active; 'I' for Inactive)
REMARK    1  A    between atoms: C_2  and  C_6 
REMARK    2  A    between atoms: C_6  and  C_8 
REMARK    3  A    between atoms: N_7  and  C_8 
ROOT
HETATM    1  C   UNL     1      65.312   6.661   7.025  1.00  0.00     0.073 C 
ENDROOT
BRANCH   1   2
HETATM    2  C   UNL     1      64.417   7.355   6.039  1.00  0.00    -0.016 A 
HETATM    3  S   UNL     1      62.724   7.097   6.077  1.00  0.00    -0.106 SA
HETATM    4  C   UNL     1      62.464   8.180   4.780  1.00  0.00     0.050 A 
HETATM    5  C   UNL     1      63.642   8.722   4.315  1.00  0.00     0.008 A 
HETATM    6  C   UNL     1      64.771   8.245   5.041  1.00  0.00     0.015 A 
ENDBRANCH   1   2
BRANCH   1   7
HETATM    7  C   UNL     1      66.701   7.305   7.087  1.00  0.00     0.234 C 
BRANCH   7   8
HETATM    8  N   UNL     1      67.262   7.235   8.436  1.00  0.00    -0.079 N 
HETATM    9  H   UNL     1      66.878   7.991   9.004  1.00  0.00     0.274 HD
HETATM   10  H   UNL     1      68.277   7.329   8.389  1.00  0.00     0.274 HD
HETATM   11  H   UNL     1      67.023   6.338   8.858  1.00  0.00     0.274 HD
ENDBRANCH   7   8
ENDBRANCH   1   7
TORSDOF 3
ENDMDL
