MODEL 1
REMARK VINA RESULT:      -4.7      0.000      0.000
REMARK  2 active torsions:
REMARK  status: ('A' for Active; 'I' for Inactive)
REMARK       I    between atoms: C_1  and  N_2 
REMARK    1  A    between atoms: N_2  and  C_7 
REMARK    2  A    between atoms: C_6  and  C_7 
ROOT
HETATM    1  N   UNL     1      61.727  11.390   3.017  1.00  0.00    -0.375 N 
ATOM      2  HN  UNL     1      61.437  12.344   3.234  1.00  0.00     0.164 HD
HETATM    3  C   UNL     1      62.513   9.217   3.749  1.00  0.00    -0.025 A 
HETATM    4  C   UNL     1      62.111  10.528   3.985  1.00  0.00     0.096 A 
HETATM    5  C   UNL     1      61.744  10.927   1.749  1.00  0.00     0.087 A 
HETATM    6  C   UNL     1      62.498   8.769   2.425  1.00  0.00     0.011 A 
HETATM    7  C   UNL     1      62.114   9.637   1.406  1.00  0.00     0.018 A 
ENDROOT
BRANCH   3   8
HETATM    8  C   UNL     1      62.913   8.319   4.879  1.00  0.00     0.162 C 
BRANCH   8   9
HETATM    9  N   UNL     1      64.206   7.721   4.649  1.00  0.00    -0.357 N 
HETATM   10  C   UNL     1      65.337   8.272   5.199  1.00  0.00     0.213 C 
HETATM   11  O   UNL     1      65.325   9.286   5.889  1.00  0.00    -0.274 OA
HETATM   12  C   UNL     1      66.609   7.529   4.892  1.00  0.00     0.117 C 
HETATM   13  H   UNL     1      64.278   6.911   4.094  1.00  0.00     0.162 HD
ENDBRANCH   8   9
ENDBRANCH   3   8
TORSDOF 2
ENDMDL
MODEL 2
REMARK VINA RESULT:      -4.4      0.987      1.548
REMARK  2 active torsions:
REMARK  status: ('A' for Active; 'I' for Inactive)
REMARK       I    between atoms: C_1  and  N_2 
REMARK    1  A    between atoms: N_2  and  C_7 
REMARK    2  A    between atoms: C_6  and  C_7 
ROOT
HETATM    1  N   UNL     1      62.265   9.154   1.739  1.00  0.00    -0.375 N 
ATOM      2  HN  UNL     1      62.225   8.762   0.798  1.00  0.00     0.164 HD
HETATM    3  C   UNL     1      62.829   8.926   4.085  1.00  0.00    -0.025 A 
HETATM    4  C   UNL     1      62.749   8.444   2.783  1.00  0.00     0.096 A 
HETATM    5  C   UNL     1      61.837  10.406   2.002  1.00  0.00     0.087 A 
HETATM    6  C   UNL     1      62.394  10.235   4.314  1.00  0.00     0.011 A 
HETATM    7  C   UNL     1      61.884  10.987   3.259  1.00  0.00     0.018 A 
ENDROOT
BRANCH   3   8
HETATM    8  C   UNL     1      63.391   8.081   5.186  1.00  0.00     0.162 C 
BRANCH   8   9
HETATM    9  N   UNL     1      64.709   7.591   4.859  1.00  0.00    -0.357 N 
HETATM   10  C   UNL     1      65.826   8.183   5.396  1.00  0.00     0.213 C 
HETATM   11  O   UNL     1      65.779   9.146   6.155  1.00  0.00    -0.274 OA
HETATM   12  C   UNL     1      67.128   7.553   4.984  1.00  0.00     0.117 C 
HETATM   13  H   UNL     1      64.808   6.827   4.247  1.00  0.00     0.162 HD
ENDBRANCH   8   9
ENDBRANCH   3   8
TORSDOF 2
ENDMDL
MODEL 3
REMARK VINA RESULT:      -4.2      1.942      4.751
REMARK  2 active torsions:
REMARK  status: ('A' for Active; 'I' for Inactive)
REMARK       I    between atoms: C_1  and  N_2 
REMARK    1  A    between atoms: N_2  and  C_7 
REMARK    2  A    between atoms: C_6  and  C_7 
ROOT
HETATM    1  N   UNL     1      64.780   6.295   3.627  1.00  0.00    -0.375 N 
ATOM      2  HN  UNL     1      64.740   5.463   3.037  1.00  0.00     0.164 HD
HETATM    3  C   UNL     1      63.729   8.289   4.517  1.00  0.00    -0.025 A 
HETATM    4  C   UNL     1      63.732   7.143   3.728  1.00  0.00     0.096 A 
HETATM    5  C   UNL     1      65.882   6.601   4.344  1.00  0.00     0.087 A 
HETATM    6  C   UNL     1      64.881   8.561   5.261  1.00  0.00     0.011 A 
HETATM    7  C   UNL     1      65.978   7.709   5.171  1.00  0.00     0.018 A 
ENDROOT
BRANCH   3   8
HETATM    8  C   UNL     1      62.521   9.173   4.586  1.00  0.00     0.162 C 
BRANCH   8   9
HETATM    9  N   UNL     1      62.291   9.855   3.335  1.00  0.00    -0.357 N 
HETATM   10  C   UNL     1      61.929  11.179   3.319  1.00  0.00     0.213 C 
HETATM   11  O   UNL     1      61.770  11.846   4.336  1.00  0.00    -0.274 OA
HETATM   12  C   UNL     1      61.745  11.762   1.944  1.00  0.00     0.117 C 
HETATM   13  H   UNL     1      62.394   9.367   2.487  1.00  0.00     0.162 HD
ENDBRANCH   8   9
ENDBRANCH   3   8
TORSDOF 2
ENDMDL
MODEL 4
REMARK VINA RESULT:      -4.0      3.057      6.668
REMARK  2 active torsions:
REMARK  status: ('A' for Active; 'I' for Inactive)
REMARK       I    between atoms: C_1  and  N_2 
REMARK    1  A    between atoms: N_2  and  C_7 
REMARK    2  A    between atoms: C_6  and  C_7 
ROOT
HETATM    1  N   UNL     1      67.279   5.765   9.144  1.00  0.00    -0.375 N 
ATOM      2  HN  UNL     1      67.147   5.770  10.156  1.00  0.00     0.164 HD
HETATM    3  C   UNL     1      67.094   6.875   6.998  1.00  0.00    -0.025 A 
HETATM    4  C   UNL     1      66.935   6.825   8.379  1.00  0.00     0.096 A 
HETATM    5  C   UNL     1      67.806   4.699   8.505  1.00  0.00     0.087 A 
HETATM    6  C   UNL     1      67.662   5.760   6.375  1.00  0.00     0.011 A 
HETATM    7  C   UNL     1      68.019   4.651   7.137  1.00  0.00     0.018 A 
ENDROOT
BRANCH   3   8
HETATM    8  C   UNL     1      66.700   8.094   6.221  1.00  0.00     0.162 C 
BRANCH   8   9
HETATM    9  N   UNL     1      65.630   7.810   5.296  1.00  0.00    -0.357 N 
HETATM   10  C   UNL     1      64.612   8.713   5.108  1.00  0.00     0.213 C 
HETATM   11  O   UNL     1      64.541   9.781   5.705  1.00  0.00    -0.274 OA
HETATM   12  C   UNL     1      63.580   8.292   4.097  1.00  0.00     0.117 C 
HETATM   13  H   UNL     1      65.629   6.962   4.795  1.00  0.00     0.162 HD
ENDBRANCH   8   9
ENDBRANCH   3   8
TORSDOF 2
ENDMDL
MODEL 5
REMARK VINA RESULT:      -4.0      3.008      4.841
REMARK  2 active torsions:
REMARK  status: ('A' for Active; 'I' for Inactive)
REMARK       I    between atoms: C_1  and  N_2 
REMARK    1  A    between atoms: N_2  and  C_7 
REMARK    2  A    between atoms: C_6  and  C_7 
ROOT
HETATM    1  N   UNL     1      62.319  11.164   4.601  1.00  0.00    -0.375 N 
ATOM      2  HN  UNL     1      62.096  12.069   5.014  1.00  0.00     0.164 HD
HETATM    3  C   UNL     1      62.201   9.623   2.733  1.00  0.00    -0.025 A 
HETATM    4  C   UNL     1      61.925  10.840   3.348  1.00  0.00     0.096 A 
HETATM    5  C   UNL     1      63.022  10.230   5.277  1.00  0.00     0.087 A 
HETATM    6  C   UNL     1      62.948   8.691   3.459  1.00  0.00     0.011 A 
HETATM    7  C   UNL     1      63.361   8.994   4.753  1.00  0.00     0.018 A 
ENDROOT
BRANCH   3   8
HETATM    8  C   UNL     1      61.740   9.345   1.335  1.00  0.00     0.162 C 
BRANCH   8   9
HETATM    9  N   UNL     1      60.349   8.963   1.302  1.00  0.00    -0.357 N 
HETATM   10  C   UNL     1      59.986   7.680   0.974  1.00  0.00     0.213 C 
HETATM   11  O   UNL     1      60.794   6.805   0.684  1.00  0.00    -0.274 OA
HETATM   12  C   UNL     1      58.504   7.422   1.002  1.00  0.00     0.117 C 
HETATM   13  H   UNL     1      59.655   9.627   1.516  1.00  0.00     0.162 HD
ENDBRANCH   8   9
ENDBRANCH   3   8
TORSDOF 2
ENDMDL
MODEL 6
REMARK VINA RESULT:      -3.8      1.728      2.295
REMARK  2 active torsions:
REMARK  status: ('A' for Active; 'I' for Inactive)
REMARK       I    between atoms: C_1  and  N_2 
REMARK    1  A    between atoms: N_2  and  C_7 
REMARK    2  A    between atoms: C_6  and  C_7 
ROOT
HETATM    1  N   UNL     1      60.973   9.344   3.316  1.00  0.00    -0.375 N 
ATOM      2  HN  UNL     1      60.424  10.053   2.830  1.00  0.00     0.164 HD
HETATM    3  C   UNL     1      62.983   8.697   4.506  1.00  0.00    -0.025 A 
HETATM    4  C   UNL     1      62.192   9.621   3.832  1.00  0.00     0.096 A 
HETATM    5  C   UNL     1      60.519   8.083   3.475  1.00  0.00     0.087 A 
HETATM    6  C   UNL     1      62.469   7.407   4.668  1.00  0.00     0.011 A 
HETATM    7  C   UNL     1      61.220   7.090   4.140  1.00  0.00     0.018 A 
ENDROOT
BRANCH   3   8
HETATM    8  C   UNL     1      64.319   9.086   5.061  1.00  0.00     0.162 C 
BRANCH   8   9
HETATM    9  N   UNL     1      64.764   8.158   6.072  1.00  0.00    -0.357 N 
HETATM   10  C   UNL     1      66.096   7.846   6.194  1.00  0.00     0.213 C 
HETATM   11  O   UNL     1      66.967   8.310   5.466  1.00  0.00    -0.274 OA
HETATM   12  C   UNL     1      66.414   6.883   7.305  1.00  0.00     0.117 C 
HETATM   13  H   UNL     1      64.109   7.746   6.679  1.00  0.00     0.162 HD
ENDBRANCH   8   9
ENDBRANCH   3   8
TORSDOF 2
ENDMDL
MODEL 7
REMARK VINA RESULT:      -3.8      2.191      2.504
REMARK  2 active torsions:
REMARK  status: ('A' for Active; 'I' for Inactive)
REMARK       I    between atoms: C_1  and  N_2 
REMARK    1  A    between atoms: N_2  and  C_7 
REMARK    2  A    between atoms: C_6  and  C_7 
ROOT
HETATM    1  N   UNL     1      62.740   7.151   1.397  1.00  0.00    -0.375 N 
ATOM      2  HN  UNL     1      62.957   6.232   1.009  1.00  0.00     0.164 HD
HETATM    3  C   UNL     1      62.852   8.736   3.227  1.00  0.00    -0.025 A 
HETATM    4  C   UNL     1      63.118   7.499   2.647  1.00  0.00     0.096 A 
HETATM    5  C   UNL     1      62.062   8.077   0.686  1.00  0.00     0.087 A 
HETATM    6  C   UNL     1      62.166   9.675   2.452  1.00  0.00     0.011 A 
HETATM    7  C   UNL     1      61.758   9.341   1.163  1.00  0.00     0.018 A 
ENDROOT
BRANCH   3   8
HETATM    8  C   UNL     1      63.317   9.050   4.616  1.00  0.00     0.162 C 
BRANCH   8   9
HETATM    9  N   UNL     1      64.164   8.007   5.141  1.00  0.00    -0.357 N 
HETATM   10  C   UNL     1      63.809   7.328   6.280  1.00  0.00     0.213 C 
HETATM   11  O   UNL     1      62.786   7.565   6.915  1.00  0.00    -0.274 OA
HETATM   12  C   UNL     1      64.776   6.253   6.696  1.00  0.00     0.117 C 
HETATM   13  H   UNL     1      65.003   7.779   4.679  1.00  0.00     0.162 HD
ENDBRANCH   8   9
ENDBRANCH   3   8
TORSDOF 2
ENDMDL
MODEL 8
REMARK VINA RESULT:      -3.7      1.926      5.039
REMARK  2 active torsions:
REMARK  status: ('A' for Active; 'I' for Inactive)
REMARK       I    between atoms: C_1  and  N_2 
REMARK    1  A    between atoms: N_2  and  C_7 
REMARK    2  A    between atoms: C_6  and  C_7 
ROOT
HETATM    1  N   UNL     1      65.541   6.222   6.623  1.00  0.00    -0.375 N 
ATOM      2  HN  UNL     1      65.524   5.500   7.343  1.00  0.00     0.164 HD
HETATM    3  C   UNL     1      64.409   7.953   5.358  1.00  0.00    -0.025 A 
HETATM    4  C   UNL     1      64.444   6.955   6.327  1.00  0.00     0.096 A 
HETATM    5  C   UNL     1      66.660   6.492   5.918  1.00  0.00     0.087 A 
HETATM    6  C   UNL     1      65.593   8.217   4.664  1.00  0.00     0.011 A 
HETATM    7  C   UNL     1      66.737   7.473   4.942  1.00  0.00     0.018 A 
ENDROOT
BRANCH   3   8
HETATM    8  C   UNL     1      63.155   8.731   5.099  1.00  0.00     0.162 C 
BRANCH   8   9
HETATM    9  N   UNL     1      62.928   8.915   3.686  1.00  0.00    -0.357 N 
HETATM   10  C   UNL     1      62.104   9.917   3.237  1.00  0.00     0.213 C 
HETATM   11  O   UNL     1      61.514  10.690   3.985  1.00  0.00    -0.274 OA
HETATM   12  C   UNL     1      61.981  10.003   1.740  1.00  0.00     0.117 C 
HETATM   13  H   UNL     1      63.368   8.318   3.038  1.00  0.00     0.162 HD
ENDBRANCH   8   9
ENDBRANCH   3   8
TORSDOF 2
ENDMDL
MODEL 9
REMARK VINA RESULT:      -3.6      2.169      3.089
REMARK  2 active torsions:
REMARK  status: ('A' for Active; 'I' for Inactive)
REMARK       I    between atoms: C_1  and  N_2 
REMARK    1  A    between atoms: N_2  and  C_7 
REMARK    2  A    between atoms: C_6  and  C_7 
ROOT
HETATM    1  N   UNL     1      62.374   7.762   3.534  1.00  0.00    -0.375 N 
ATOM      2  HN  UNL     1      61.918   7.030   2.988  1.00  0.00     0.164 HD
HETATM    3  C   UNL     1      64.246   8.524   4.871  1.00  0.00    -0.025 A 
HETATM    4  C   UNL     1      63.578   7.564   4.118  1.00  0.00     0.096 A 
HETATM    5  C   UNL     1      61.805   8.973   3.709  1.00  0.00     0.087 A 
HETATM    6  C   UNL     1      63.634   9.773   5.012  1.00  0.00     0.011 A 
HETATM    7  C   UNL     1      62.391  10.002   4.428  1.00  0.00     0.018 A 
ENDROOT
BRANCH   3   8
HETATM    8  C   UNL     1      65.586   8.232   5.476  1.00  0.00     0.162 C 
BRANCH   8   9
HETATM    9  N   UNL     1      65.459   7.572   6.753  1.00  0.00    -0.357 N 
HETATM   10  C   UNL     1      66.487   6.809   7.249  1.00  0.00     0.213 C 
HETATM   11  O   UNL     1      67.544   6.633   6.652  1.00  0.00    -0.274 OA
HETATM   12  C   UNL     1      66.221   6.202   8.599  1.00  0.00     0.117 C 
HETATM   13  H   UNL     1      64.628   7.670   7.273  1.00  0.00     0.162 HD
ENDBRANCH   8   9
ENDBRANCH   3   8
TORSDOF 2
ENDMDL
