MODEL 1
REMARK VINA RESULT:      -4.7      0.000      0.000
REMARK  4 active torsions:
REMARK  status: ('A' for Active; 'I' for Inactive)
REMARK    1  A    between atoms: C_1  and  C_4 
REMARK    2  A    between atoms: C_1  and  O_6 
REMARK    3  A    between atoms: S_2  and  C_4 
REMARK    4  A    between atoms: S_2  and  C_5 
ROOT
HETATM    1  C   UNL     1      62.508   8.976   3.572  1.00  0.00     0.001 A 
HETATM    2  C   UNL     1      62.352   8.915   2.184  1.00  0.00     0.018 A 
HETATM    3  C   UNL     1      62.308  10.209   4.212  1.00  0.00     0.018 A 
HETATM    4  C   UNL     1      61.982  10.054   1.458  1.00  0.00     0.001 A 
HETATM    5  C   UNL     1      61.941  11.347   3.489  1.00  0.00     0.001 A 
HETATM    6  C   UNL     1      61.771  11.267   2.111  1.00  0.00     0.000 A 
ENDROOT
BRANCH   1   7
HETATM    7  S   UNL     1      62.948   7.601   4.625  1.00  0.00    -0.120 SA
BRANCH   7   8
HETATM    8  C   UNL     1      64.755   7.435   4.423  1.00  0.00     0.190 C 
BRANCH   8   9
HETATM    9  C   UNL     1      65.500   8.048   5.599  1.00  0.00     0.268 C 
HETATM   10  O   UNL     1      65.460   9.215   5.969  1.00  0.00    -0.264 OA
BRANCH   9  11
HETATM   11  O   UNL     1      66.251   7.079   6.210  1.00  0.00    -0.326 OA
HETATM   12  C   UNL     1      65.803   6.750   7.530  1.00  0.00     0.213 C 
ENDBRANCH   9  11
ENDBRANCH   8   9
ENDBRANCH   7   8
ENDBRANCH   1   7
TORSDOF 4
ENDMDL
MODEL 2
REMARK VINA RESULT:      -4.7      0.683      1.548
REMARK  4 active torsions:
REMARK  status: ('A' for Active; 'I' for Inactive)
REMARK    1  A    between atoms: C_1  and  C_4 
REMARK    2  A    between atoms: C_1  and  O_6 
REMARK    3  A    between atoms: S_2  and  C_4 
REMARK    4  A    between atoms: S_2  and  C_5 
ROOT
HETATM    1  C   UNL     1      62.554   8.626   3.367  1.00  0.00     0.001 A 
HETATM    2  C   UNL     1      62.316   9.824   4.047  1.00  0.00     0.018 A 
HETATM    3  C   UNL     1      62.408   8.612   1.971  1.00  0.00     0.018 A 
HETATM    4  C   UNL     1      61.966  10.984   3.345  1.00  0.00     0.001 A 
HETATM    5  C   UNL     1      62.057   9.767   1.269  1.00  0.00     0.001 A 
HETATM    6  C   UNL     1      61.842  10.957   1.957  1.00  0.00     0.000 A 
ENDROOT
BRANCH   1   7
HETATM    7  S   UNL     1      63.033   7.081   4.127  1.00  0.00    -0.120 SA
BRANCH   7   8
HETATM    8  C   UNL     1      64.814   7.282   4.479  1.00  0.00     0.190 C 
BRANCH   8   9
HETATM    9  C   UNL     1      65.037   8.075   5.757  1.00  0.00     0.268 C 
HETATM   10  O   UNL     1      65.554   9.181   5.858  1.00  0.00    -0.264 OA
BRANCH   9  11
HETATM   11  O   UNL     1      64.564   7.354   6.821  1.00  0.00    -0.326 OA
HETATM   12  C   UNL     1      65.374   6.222   7.157  1.00  0.00     0.213 C 
ENDBRANCH   9  11
ENDBRANCH   8   9
ENDBRANCH   7   8
ENDBRANCH   1   7
TORSDOF 4
ENDMDL
MODEL 3
REMARK VINA RESULT:      -4.1      1.483      1.703
REMARK  4 active torsions:
REMARK  status: ('A' for Active; 'I' for Inactive)
REMARK    1  A    between atoms: C_1  and  C_4 
REMARK    2  A    between atoms: C_1  and  O_6 
REMARK    3  A    between atoms: S_2  and  C_4 
REMARK    4  A    between atoms: S_2  and  C_5 
ROOT
HETATM    1  C   UNL     1      61.933   8.333   3.244  1.00  0.00     0.001 A 
HETATM    2  C   UNL     1      61.946   8.353   1.846  1.00  0.00     0.018 A 
HETATM    3  C   UNL     1      61.908   9.558   3.929  1.00  0.00     0.018 A 
HETATM    4  C   UNL     1      61.910   9.568   1.152  1.00  0.00     0.001 A 
HETATM    5  C   UNL     1      61.874  10.771   3.237  1.00  0.00     0.001 A 
HETATM    6  C   UNL     1      61.868  10.775   1.846  1.00  0.00     0.000 A 
ENDROOT
BRANCH   1   7
HETATM    7  S   UNL     1      61.948   6.861   4.258  1.00  0.00    -0.120 SA
BRANCH   7   8
HETATM    8  C   UNL     1      62.626   7.420   5.859  1.00  0.00     0.190 C 
BRANCH   8   9
HETATM    9  C   UNL     1      63.886   6.650   6.222  1.00  0.00     0.268 C 
HETATM   10  O   UNL     1      64.315   5.639   5.680  1.00  0.00    -0.264 OA
BRANCH   9  11
HETATM   11  O   UNL     1      64.501   7.267   7.280  1.00  0.00    -0.326 OA
HETATM   12  C   UNL     1      65.813   6.765   7.556  1.00  0.00     0.213 C 
ENDBRANCH   9  11
ENDBRANCH   8   9
ENDBRANCH   7   8
ENDBRANCH   1   7
TORSDOF 4
ENDMDL
MODEL 4
REMARK VINA RESULT:      -4.0      3.109      3.245
REMARK  4 active torsions:
REMARK  status: ('A' for Active; 'I' for Inactive)
REMARK    1  A    between atoms: C_1  and  C_4 
REMARK    2  A    between atoms: C_1  and  O_6 
REMARK    3  A    between atoms: S_2  and  C_4 
REMARK    4  A    between atoms: S_2  and  C_5 
ROOT
HETATM    1  C   UNL     1      62.818   8.793   3.607  1.00  0.00     0.001 A 
HETATM    2  C   UNL     1      62.542   8.840   2.237  1.00  0.00     0.018 A 
HETATM    3  C   UNL     1      62.564   9.938   4.378  1.00  0.00     0.018 A 
HETATM    4  C   UNL     1      62.002   9.995   1.659  1.00  0.00     0.001 A 
HETATM    5  C   UNL     1      62.028  11.092   3.803  1.00  0.00     0.001 A 
HETATM    6  C   UNL     1      61.740  11.118   2.442  1.00  0.00     0.000 A 
ENDROOT
BRANCH   1   7
HETATM    7  S   UNL     1      63.479   7.381   4.482  1.00  0.00    -0.120 SA
BRANCH   7   8
HETATM    8  C   UNL     1      62.598   7.385   6.081  1.00  0.00     0.190 C 
BRANCH   8   9
HETATM    9  C   UNL     1      61.321   6.563   6.008  1.00  0.00     0.268 C 
HETATM   10  O   UNL     1      60.562   6.463   5.052  1.00  0.00    -0.264 OA
BRANCH   9  11
HETATM   11  O   UNL     1      61.128   5.925   7.205  1.00  0.00    -0.326 OA
HETATM   12  C   UNL     1      59.767   5.932   7.649  1.00  0.00     0.213 C 
ENDBRANCH   9  11
ENDBRANCH   8   9
ENDBRANCH   7   8
ENDBRANCH   1   7
TORSDOF 4
ENDMDL
MODEL 5
REMARK VINA RESULT:      -3.9      2.526      3.274
REMARK  4 active torsions:
REMARK  status: ('A' for Active; 'I' for Inactive)
REMARK    1  A    between atoms: C_1  and  C_4 
REMARK    2  A    between atoms: C_1  and  O_6 
REMARK    3  A    between atoms: S_2  and  C_4 
REMARK    4  A    between atoms: S_2  and  C_5 
ROOT
HETATM    1  C   UNL     1      63.216   8.294   3.439  1.00  0.00     0.001 A 
HETATM    2  C   UNL     1      62.741   9.526   3.899  1.00  0.00     0.018 A 
HETATM    3  C   UNL     1      62.887   7.898   2.133  1.00  0.00     0.018 A 
HETATM    4  C   UNL     1      61.978  10.352   3.064  1.00  0.00     0.001 A 
HETATM    5  C   UNL     1      62.124   8.719   1.300  1.00  0.00     0.001 A 
HETATM    6  C   UNL     1      61.674   9.951   1.764  1.00  0.00     0.000 A 
ENDROOT
BRANCH   1   7
HETATM    7  S   UNL     1      64.220   7.155   4.381  1.00  0.00    -0.120 SA
BRANCH   7   8
HETATM    8  C   UNL     1      63.013   6.053   5.197  1.00  0.00     0.190 C 
BRANCH   8   9
HETATM    9  C   UNL     1      62.207   6.801   6.246  1.00  0.00     0.268 C 
HETATM   10  O   UNL     1      62.611   7.676   7.003  1.00  0.00    -0.264 OA
BRANCH   9  11
HETATM   11  O   UNL     1      60.915   6.345   6.230  1.00  0.00    -0.326 OA
HETATM   12  C   UNL     1      60.303   6.391   4.937  1.00  0.00     0.213 C 
ENDBRANCH   9  11
ENDBRANCH   8   9
ENDBRANCH   7   8
ENDBRANCH   1   7
TORSDOF 4
ENDMDL
MODEL 6
REMARK VINA RESULT:      -3.9      2.483      6.788
REMARK  4 active torsions:
REMARK  status: ('A' for Active; 'I' for Inactive)
REMARK    1  A    between atoms: C_1  and  C_4 
REMARK    2  A    between atoms: C_1  and  O_6 
REMARK    3  A    between atoms: S_2  and  C_4 
REMARK    4  A    between atoms: S_2  and  C_5 
ROOT
HETATM    1  C   UNL     1      67.299   6.480   6.902  1.00  0.00     0.001 A 
HETATM    2  C   UNL     1      67.685   5.287   6.284  1.00  0.00     0.018 A 
HETATM    3  C   UNL     1      67.289   6.532   8.305  1.00  0.00     0.018 A 
HETATM    4  C   UNL     1      68.074   4.182   7.051  1.00  0.00     0.001 A 
HETATM    5  C   UNL     1      67.675   5.430   9.071  1.00  0.00     0.001 A 
HETATM    6  C   UNL     1      68.075   4.255   8.443  1.00  0.00     0.000 A 
ENDROOT
BRANCH   1   7
HETATM    7  S   UNL     1      66.806   7.973   6.052  1.00  0.00    -0.120 SA
BRANCH   7   8
HETATM    8  C   UNL     1      65.124   7.613   5.440  1.00  0.00     0.190 C 
BRANCH   8   9
HETATM    9  C   UNL     1      64.377   8.892   5.098  1.00  0.00     0.268 C 
HETATM   10  O   UNL     1      64.415   9.954   5.707  1.00  0.00    -0.264 OA
BRANCH   9  11
HETATM   11  O   UNL     1      63.625   8.686   3.971  1.00  0.00    -0.326 OA
HETATM   12  C   UNL     1      62.405   9.436   3.947  1.00  0.00     0.213 C 
ENDBRANCH   9  11
ENDBRANCH   8   9
ENDBRANCH   7   8
ENDBRANCH   1   7
TORSDOF 4
ENDMDL
MODEL 7
REMARK VINA RESULT:      -3.7      2.316      5.720
REMARK  4 active torsions:
REMARK  status: ('A' for Active; 'I' for Inactive)
REMARK    1  A    between atoms: C_1  and  C_4 
REMARK    2  A    between atoms: C_1  and  O_6 
REMARK    3  A    between atoms: S_2  and  C_4 
REMARK    4  A    between atoms: S_2  and  C_5 
ROOT
HETATM    1  C   UNL     1      65.171   7.297   5.219  1.00  0.00     0.001 A 
HETATM    2  C   UNL     1      66.513   7.319   4.830  1.00  0.00     0.018 A 
HETATM    3  C   UNL     1      64.855   6.825   6.503  1.00  0.00     0.018 A 
HETATM    4  C   UNL     1      67.517   6.904   5.714  1.00  0.00     0.001 A 
HETATM    5  C   UNL     1      65.855   6.408   7.384  1.00  0.00     0.001 A 
HETATM    6  C   UNL     1      67.189   6.454   6.991  1.00  0.00     0.000 A 
ENDROOT
BRANCH   1   7
HETATM    7  S   UNL     1      63.792   7.822   4.210  1.00  0.00    -0.120 SA
BRANCH   7   8
HETATM    8  C   UNL     1      63.345   9.465   4.870  1.00  0.00     0.190 C 
BRANCH   8   9
HETATM    9  C   UNL     1      62.284  10.133   4.012  1.00  0.00     0.268 C 
HETATM   10  O   UNL     1      61.674  11.165   4.264  1.00  0.00    -0.264 OA
BRANCH   9  11
HETATM   11  O   UNL     1      62.095   9.395   2.874  1.00  0.00    -0.326 OA
HETATM   12  C   UNL     1      61.944  10.187   1.691  1.00  0.00     0.213 C 
ENDBRANCH   9  11
ENDBRANCH   8   9
ENDBRANCH   7   8
ENDBRANCH   1   7
TORSDOF 4
ENDMDL
MODEL 8
REMARK VINA RESULT:      -3.7     12.537     14.237
REMARK  4 active torsions:
REMARK  status: ('A' for Active; 'I' for Inactive)
REMARK    1  A    between atoms: C_1  and  C_4 
REMARK    2  A    between atoms: C_1  and  O_6 
REMARK    3  A    between atoms: S_2  and  C_4 
REMARK    4  A    between atoms: S_2  and  C_5 
ROOT
HETATM    1  C   UNL     1      56.702   1.820  13.052  1.00  0.00     0.001 A 
HETATM    2  C   UNL     1      57.511   2.437  12.092  1.00  0.00     0.018 A 
HETATM    3  C   UNL     1      57.320   1.059  14.056  1.00  0.00     0.018 A 
HETATM    4  C   UNL     1      58.904   2.315  12.151  1.00  0.00     0.001 A 
HETATM    5  C   UNL     1      58.710   0.934  14.115  1.00  0.00     0.001 A 
HETATM    6  C   UNL     1      59.504   1.569  13.165  1.00  0.00     0.000 A 
ENDROOT
BRANCH   1   7
HETATM    7  S   UNL     1      54.918   1.913  13.116  1.00  0.00    -0.120 SA
BRANCH   7   8
HETATM    8  C   UNL     1      54.577   3.321  14.228  1.00  0.00     0.190 C 
BRANCH   8   9
HETATM    9  C   UNL     1      53.928   4.472  13.477  1.00  0.00     0.268 C 
HETATM   10  O   UNL     1      53.625   4.501  12.290  1.00  0.00    -0.264 OA
BRANCH   9  11
HETATM   11  O   UNL     1      53.719   5.513  14.342  1.00  0.00    -0.326 OA
HETATM   12  C   UNL     1      52.351   5.925  14.428  1.00  0.00     0.213 C 
ENDBRANCH   9  11
ENDBRANCH   8   9
ENDBRANCH   7   8
ENDBRANCH   1   7
TORSDOF 4
ENDMDL
MODEL 9
REMARK VINA RESULT:      -3.6      2.467      3.402
REMARK  4 active torsions:
REMARK  status: ('A' for Active; 'I' for Inactive)
REMARK    1  A    between atoms: C_1  and  C_4 
REMARK    2  A    between atoms: C_1  and  O_6 
REMARK    3  A    between atoms: S_2  and  C_4 
REMARK    4  A    between atoms: S_2  and  C_5 
ROOT
HETATM    1  C   UNL     1      65.122   7.647   4.680  1.00  0.00     0.001 A 
HETATM    2  C   UNL     1      64.595   6.911   3.614  1.00  0.00     0.018 A 
HETATM    3  C   UNL     1      64.432   8.792   5.106  1.00  0.00     0.018 A 
HETATM    4  C   UNL     1      63.394   7.299   3.006  1.00  0.00     0.001 A 
HETATM    5  C   UNL     1      63.236   9.182   4.499  1.00  0.00     0.001 A 
HETATM    6  C   UNL     1      62.713   8.430   3.452  1.00  0.00     0.000 A 
ENDROOT
BRANCH   1   7
HETATM    7  S   UNL     1      66.625   7.254   5.565  1.00  0.00    -0.120 SA
BRANCH   7   8
HETATM    8  C   UNL     1      66.077   6.965   7.283  1.00  0.00     0.190 C 
BRANCH   8   9
HETATM    9  C   UNL     1      66.386   5.545   7.728  1.00  0.00     0.268 C 
HETATM   10  O   UNL     1      66.176   5.054   8.830  1.00  0.00    -0.264 OA
BRANCH   9  11
HETATM   11  O   UNL     1      66.955   4.861   6.686  1.00  0.00    -0.326 OA
HETATM   12  C   UNL     1      68.066   4.044   7.071  1.00  0.00     0.213 C 
ENDBRANCH   9  11
ENDBRANCH   8   9
ENDBRANCH   7   8
ENDBRANCH   1   7
TORSDOF 4
ENDMDL
