MODEL 1
REMARK VINA RESULT:      -5.5      0.000      0.000
REMARK  1 active torsions:
REMARK  status: ('A' for Active; 'I' for Inactive)
REMARK       I    between atoms: C_5  and  N_6 
REMARK    1  A    between atoms: N_6  and  C_8 
ROOT
HETATM    1  C   UNL     1      62.715   8.862   2.881  1.00  0.00     0.016 A 
HETATM    2  C   UNL     1      62.850   9.689   3.988  1.00  0.00    -0.042 A 
HETATM    3  C   UNL     1      61.930   9.554   1.869  1.00  0.00     0.160 A 
HETATM    4  C   UNL     1      63.260   7.598   2.827  1.00  0.00     0.018 A 
HETATM    5  C   UNL     1      63.561   9.246   5.100  1.00  0.00     0.037 A 
HETATM    6  C   UNL     1      64.129   7.957   5.086  1.00  0.00     0.035 A 
HETATM    7  C   UNL     1      62.168  11.008   3.789  1.00  0.00     0.047 A 
HETATM    8  C   UNL     1      61.534  10.912   2.389  1.00  0.00     0.088 A 
HETATM    9  O   UNL     1      61.645   9.088   0.780  1.00  0.00    -0.292 OA
HETATM   10  C   UNL     1      63.972   7.149   3.943  1.00  0.00     0.030 A 
ENDROOT
BRANCH   6  11
HETATM   11  N   UNL     1      64.834   7.534   6.238  1.00  0.00    -0.328 N 
HETATM   12  C   UNL     1      66.181   7.726   6.506  1.00  0.00     0.218 C 
HETATM   13  O   UNL     1      67.000   8.304   5.800  1.00  0.00    -0.274 OA
HETATM   14  C   UNL     1      66.606   7.131   7.825  1.00  0.00     0.117 C 
HETATM   15  H   UNL     1      64.313   7.054   6.921  1.00  0.00     0.169 HD
ENDBRANCH   6  11
TORSDOF 1
ENDMDL
MODEL 2
REMARK VINA RESULT:      -5.5      1.040      1.979
REMARK  1 active torsions:
REMARK  status: ('A' for Active; 'I' for Inactive)
REMARK       I    between atoms: C_5  and  N_6 
REMARK    1  A    between atoms: N_6  and  C_8 
ROOT
HETATM    1  C   UNL     1      62.459   9.853   3.250  1.00  0.00     0.016 A 
HETATM    2  C   UNL     1      62.846   8.542   3.007  1.00  0.00    -0.042 A 
HETATM    3  C   UNL     1      61.821  10.385   2.054  1.00  0.00     0.160 A 
HETATM    4  C   UNL     1      62.684  10.484   4.454  1.00  0.00     0.018 A 
HETATM    5  C   UNL     1      63.489   7.815   4.005  1.00  0.00     0.037 A 
HETATM    6  C   UNL     1      63.742   8.426   5.250  1.00  0.00     0.035 A 
HETATM    7  C   UNL     1      62.481   8.096   1.624  1.00  0.00     0.047 A 
HETATM    8  C   UNL     1      61.821   9.329   0.979  1.00  0.00     0.088 A 
HETATM    9  O   UNL     1      61.369  11.512   1.957  1.00  0.00    -0.292 OA
HETATM   10  C   UNL     1      63.332   9.758   5.457  1.00  0.00     0.030 A 
ENDROOT
BRANCH   6  11
HETATM   11  N   UNL     1      64.408   7.662   6.237  1.00  0.00    -0.328 N 
HETATM   12  C   UNL     1      65.760   7.698   6.544  1.00  0.00     0.218 C 
HETATM   13  O   UNL     1      66.617   8.403   6.024  1.00  0.00    -0.274 OA
HETATM   14  C   UNL     1      66.135   6.737   7.644  1.00  0.00     0.117 C 
HETATM   15  H   UNL     1      63.854   7.039   6.760  1.00  0.00     0.169 HD
ENDBRANCH   6  11
TORSDOF 1
ENDMDL
MODEL 3
REMARK VINA RESULT:      -5.3      2.303      2.961
REMARK  1 active torsions:
REMARK  status: ('A' for Active; 'I' for Inactive)
REMARK       I    between atoms: C_5  and  N_6 
REMARK    1  A    between atoms: N_6  and  C_8 
ROOT
HETATM    1  C   UNL     1      62.475   9.892   3.888  1.00  0.00     0.016 A 
HETATM    2  C   UNL     1      62.491   9.151   2.714  1.00  0.00    -0.042 A 
HETATM    3  C   UNL     1      61.994  11.234   3.591  1.00  0.00     0.160 A 
HETATM    4  C   UNL     1      62.871   9.374   5.101  1.00  0.00     0.018 A 
HETATM    5  C   UNL     1      62.921   7.827   2.739  1.00  0.00     0.037 A 
HETATM    6  C   UNL     1      63.341   7.261   3.959  1.00  0.00     0.035 A 
HETATM    7  C   UNL     1      62.008   9.948   1.541  1.00  0.00     0.047 A 
HETATM    8  C   UNL     1      61.700  11.342   2.117  1.00  0.00     0.088 A 
HETATM    9  O   UNL     1      61.863  12.119   4.419  1.00  0.00    -0.292 OA
HETATM   10  C   UNL     1      63.306   8.045   5.128  1.00  0.00     0.030 A 
ENDROOT
BRANCH   6  11
HETATM   11  N   UNL     1      63.783   5.917   3.945  1.00  0.00    -0.328 N 
HETATM   12  C   UNL     1      65.077   5.470   3.722  1.00  0.00     0.218 C 
HETATM   13  O   UNL     1      66.069   6.157   3.508  1.00  0.00    -0.274 OA
HETATM   14  C   UNL     1      65.192   3.967   3.763  1.00  0.00     0.117 C 
HETATM   15  H   UNL     1      63.101   5.227   4.110  1.00  0.00     0.169 HD
ENDBRANCH   6  11
TORSDOF 1
ENDMDL
MODEL 4
REMARK VINA RESULT:      -5.1      1.923      5.684
REMARK  1 active torsions:
REMARK  status: ('A' for Active; 'I' for Inactive)
REMARK       I    between atoms: C_5  and  N_6 
REMARK    1  A    between atoms: N_6  and  C_8 
ROOT
HETATM    1  C   UNL     1      64.817   8.220   4.916  1.00  0.00     0.016 A 
HETATM    2  C   UNL     1      64.771   7.221   3.952  1.00  0.00    -0.042 A 
HETATM    3  C   UNL     1      66.066   8.105   5.654  1.00  0.00     0.160 A 
HETATM    4  C   UNL     1      63.800   9.134   5.089  1.00  0.00     0.018 A 
HETATM    5  C   UNL     1      63.663   7.119   3.115  1.00  0.00     0.037 A 
HETATM    6  C   UNL     1      62.599   8.031   3.264  1.00  0.00     0.035 A 
HETATM    7  C   UNL     1      66.001   6.367   3.971  1.00  0.00     0.047 A 
HETATM    8  C   UNL     1      66.854   6.938   5.119  1.00  0.00     0.088 A 
HETATM    9  O   UNL     1      66.401   8.845   6.563  1.00  0.00    -0.292 OA
HETATM   10  C   UNL     1      62.686   9.032   4.252  1.00  0.00     0.030 A 
ENDROOT
BRANCH   6  11
HETATM   11  N   UNL     1      61.484   7.889   2.405  1.00  0.00    -0.328 N 
HETATM   12  C   UNL     1      61.331   8.443   1.143  1.00  0.00     0.218 C 
HETATM   13  O   UNL     1      62.136   9.146   0.542  1.00  0.00    -0.274 OA
HETATM   14  C   UNL     1      60.006   8.099   0.510  1.00  0.00     0.117 C 
HETATM   15  H   UNL     1      60.738   7.340   2.738  1.00  0.00     0.169 HD
ENDBRANCH   6  11
TORSDOF 1
ENDMDL
MODEL 5
REMARK VINA RESULT:      -5.1      2.633      5.748
REMARK  1 active torsions:
REMARK  status: ('A' for Active; 'I' for Inactive)
REMARK       I    between atoms: C_5  and  N_6 
REMARK    1  A    between atoms: N_6  and  C_8 
ROOT
HETATM    1  C   UNL     1      65.286   6.298   6.558  1.00  0.00     0.016 A 
HETATM    2  C   UNL     1      65.964   7.252   5.809  1.00  0.00    -0.042 A 
HETATM    3  C   UNL     1      66.257   5.389   7.150  1.00  0.00     0.160 A 
HETATM    4  C   UNL     1      63.913   6.278   6.668  1.00  0.00     0.018 A 
HETATM    5  C   UNL     1      65.249   8.237   5.134  1.00  0.00     0.037 A 
HETATM    6  C   UNL     1      63.842   8.248   5.217  1.00  0.00     0.035 A 
HETATM    7  C   UNL     1      67.448   7.052   5.858  1.00  0.00     0.047 A 
HETATM    8  C   UNL     1      67.644   5.798   6.730  1.00  0.00     0.088 A 
HETATM    9  O   UNL     1      65.969   4.447   7.868  1.00  0.00    -0.292 OA
HETATM   10  C   UNL     1      63.193   7.265   5.989  1.00  0.00     0.030 A 
ENDROOT
BRANCH   6  11
HETATM   11  N   UNL     1      63.147   9.256   4.509  1.00  0.00    -0.328 N 
HETATM   12  C   UNL     1      62.800  10.514   4.978  1.00  0.00     0.218 C 
HETATM   13  O   UNL     1      63.041  10.981   6.086  1.00  0.00    -0.274 OA
HETATM   14  C   UNL     1      62.048  11.332   3.959  1.00  0.00     0.117 C 
HETATM   15  H   UNL     1      62.882   9.042   3.585  1.00  0.00     0.169 HD
ENDBRANCH   6  11
TORSDOF 1
ENDMDL
MODEL 6
REMARK VINA RESULT:      -4.5      2.013      2.471
REMARK  1 active torsions:
REMARK  status: ('A' for Active; 'I' for Inactive)
REMARK       I    between atoms: C_5  and  N_6 
REMARK    1  A    between atoms: N_6  and  C_8 
ROOT
HETATM    1  C   UNL     1      61.064   7.544   3.027  1.00  0.00     0.016 A 
HETATM    2  C   UNL     1      62.248   7.923   2.408  1.00  0.00    -0.042 A 
HETATM    3  C   UNL     1      59.959   7.762   2.103  1.00  0.00     0.160 A 
HETATM    4  C   UNL     1      61.021   7.054   4.314  1.00  0.00     0.018 A 
HETATM    5  C   UNL     1      63.453   7.814   3.096  1.00  0.00     0.037 A 
HETATM    6  C   UNL     1      63.451   7.322   4.417  1.00  0.00     0.035 A 
HETATM    7  C   UNL     1      62.018   8.416   1.012  1.00  0.00     0.047 A 
HETATM    8  C   UNL     1      60.493   8.333   0.816  1.00  0.00     0.088 A 
HETATM    9  O   UNL     1      58.792   7.519   2.355  1.00  0.00    -0.292 OA
HETATM   10  C   UNL     1      62.229   6.945   5.008  1.00  0.00     0.030 A 
ENDROOT
BRANCH   6  11
HETATM   11  N   UNL     1      64.692   7.236   5.090  1.00  0.00    -0.328 N 
HETATM   12  C   UNL     1      65.389   8.276   5.687  1.00  0.00     0.218 C 
HETATM   13  O   UNL     1      65.050   9.453   5.747  1.00  0.00    -0.274 OA
HETATM   14  C   UNL     1      66.690   7.830   6.305  1.00  0.00     0.117 C 
HETATM   15  H   UNL     1      65.105   6.344   5.141  1.00  0.00     0.169 HD
ENDBRANCH   6  11
TORSDOF 1
ENDMDL
MODEL 7
REMARK VINA RESULT:      -4.4      2.816      3.658
REMARK  1 active torsions:
REMARK  status: ('A' for Active; 'I' for Inactive)
REMARK       I    between atoms: C_5  and  N_6 
REMARK    1  A    between atoms: N_6  and  C_8 
ROOT
HETATM    1  C   UNL     1      64.203   8.645   4.783  1.00  0.00     0.016 A 
HETATM    2  C   UNL     1      63.783   7.810   3.756  1.00  0.00    -0.042 A 
HETATM    3  C   UNL     1      63.200   9.680   4.987  1.00  0.00     0.160 A 
HETATM    4  C   UNL     1      65.395   8.462   5.450  1.00  0.00     0.018 A 
HETATM    5  C   UNL     1      64.581   6.737   3.367  1.00  0.00     0.037 A 
HETATM    6  C   UNL     1      65.810   6.519   4.021  1.00  0.00     0.035 A 
HETATM    7  C   UNL     1      62.454   8.225   3.205  1.00  0.00     0.047 A 
HETATM    8  C   UNL     1      62.075   9.484   4.005  1.00  0.00     0.088 A 
HETATM    9  O   UNL     1      63.281  10.562   5.825  1.00  0.00    -0.292 OA
HETATM   10  C   UNL     1      66.199   7.388   5.060  1.00  0.00     0.030 A 
ENDROOT
BRANCH   6  11
HETATM   11  N   UNL     1      66.601   5.428   3.591  1.00  0.00    -0.328 N 
HETATM   12  C   UNL     1      66.773   4.217   4.245  1.00  0.00     0.218 C 
HETATM   13  O   UNL     1      66.263   3.871   5.304  1.00  0.00    -0.274 OA
HETATM   14  C   UNL     1      67.699   3.281   3.509  1.00  0.00     0.117 C 
HETATM   15  H   UNL     1      67.081   5.540   2.739  1.00  0.00     0.169 HD
ENDBRANCH   6  11
TORSDOF 1
ENDMDL
MODEL 8
REMARK VINA RESULT:      -4.4      2.605      6.653
REMARK  1 active torsions:
REMARK  status: ('A' for Active; 'I' for Inactive)
REMARK       I    between atoms: C_5  and  N_6 
REMARK    1  A    between atoms: N_6  and  C_8 
ROOT
HETATM    1  C   UNL     1      66.826   5.106   7.182  1.00  0.00     0.016 A 
HETATM    2  C   UNL     1      66.699   6.409   7.647  1.00  0.00    -0.042 A 
HETATM    3  C   UNL     1      67.647   4.351   8.119  1.00  0.00     0.160 A 
HETATM    4  C   UNL     1      66.245   4.674   6.011  1.00  0.00     0.018 A 
HETATM    5  C   UNL     1      65.959   7.334   6.916  1.00  0.00     0.037 A 
HETATM    6  C   UNL     1      65.352   6.933   5.709  1.00  0.00     0.035 A 
HETATM    7  C   UNL     1      67.423   6.616   8.942  1.00  0.00     0.047 A 
HETATM    8  C   UNL     1      68.075   5.254   9.245  1.00  0.00     0.088 A 
HETATM    9  O   UNL     1      67.935   3.174   7.989  1.00  0.00    -0.292 OA
HETATM   10  C   UNL     1      65.503   5.601   5.274  1.00  0.00     0.030 A 
ENDROOT
BRANCH   6  11
HETATM   11  N   UNL     1      64.618   7.902   4.986  1.00  0.00    -0.328 N 
HETATM   12  C   UNL     1      63.411   8.477   5.355  1.00  0.00     0.218 C 
HETATM   13  O   UNL     1      62.770   8.256   6.376  1.00  0.00    -0.274 OA
HETATM   14  C   UNL     1      62.899   9.467   4.339  1.00  0.00     0.117 C 
HETATM   15  H   UNL     1      65.004   8.200   4.131  1.00  0.00     0.169 HD
ENDBRANCH   6  11
TORSDOF 1
ENDMDL
MODEL 9
REMARK VINA RESULT:      -4.3     10.655     11.989
REMARK  1 active torsions:
REMARK  status: ('A' for Active; 'I' for Inactive)
REMARK       I    between atoms: C_5  and  N_6 
REMARK    1  A    between atoms: N_6  and  C_8 
ROOT
HETATM    1  C   UNL     1      57.221   1.760  12.486  1.00  0.00     0.016 A 
HETATM    2  C   UNL     1      58.569   2.073  12.376  1.00  0.00    -0.042 A 
HETATM    3  C   UNL     1      56.988   1.129  13.777  1.00  0.00     0.160 A 
HETATM    4  C   UNL     1      56.312   2.028  11.486  1.00  0.00     0.018 A 
HETATM    5  C   UNL     1      59.046   2.684  11.220  1.00  0.00     0.037 A 
HETATM    6  C   UNL     1      58.148   2.970  10.171  1.00  0.00     0.035 A 
HETATM    7  C   UNL     1      59.337   1.681  13.601  1.00  0.00     0.047 A 
HETATM    8  C   UNL     1      58.292   1.030  14.525  1.00  0.00     0.088 A 
HETATM    9  O   UNL     1      55.900   0.744  14.170  1.00  0.00    -0.292 OA
HETATM   10  C   UNL     1      56.787   2.639  10.322  1.00  0.00     0.030 A 
ENDROOT
BRANCH   6  11
HETATM   11  N   UNL     1      58.668   3.580   9.005  1.00  0.00    -0.328 N 
HETATM   12  C   UNL     1      58.881   4.935   8.799  1.00  0.00     0.218 C 
HETATM   13  O   UNL     1      58.666   5.845   9.592  1.00  0.00    -0.274 OA
HETATM   14  C   UNL     1      59.436   5.239   7.431  1.00  0.00     0.117 C 
HETATM   15  H   UNL     1      58.905   2.979   8.262  1.00  0.00     0.169 HD
ENDBRANCH   6  11
TORSDOF 1
ENDMDL
