MODEL 1
REMARK VINA RESULT:      -4.7      0.000      0.000
REMARK  1 active torsions:
REMARK  status: ('A' for Active; 'I' for Inactive)
REMARK    1  A    between atoms: C_3  and  C_4 
ROOT
HETATM    1  N   UNL     1      63.647  11.724   6.809  1.00  0.00    -0.191 NA
HETATM    2  C   UNL     1      63.254  11.188   5.857  1.00  0.00     0.099 C 
HETATM    3  C   UNL     1      61.937   9.295   2.293  1.00  0.00     0.009 A 
HETATM    4  C   UNL     1      61.644  10.645   2.526  1.00  0.00     0.016 A 
HETATM    5  C   UNL     1      62.634   8.568   3.269  1.00  0.00     0.016 A 
HETATM    6  C   UNL     1      62.783  10.539   4.668  1.00  0.00     0.044 A 
HETATM    7  C   UNL     1      62.068  11.264   3.708  1.00  0.00     0.023 A 
HETATM    8  C   UNL     1      63.054   9.185   4.451  1.00  0.00     0.023 A 
ENDROOT
BRANCH   3   9
HETATM    9  C   UNL     1      61.547   8.603   1.028  1.00  0.00     0.155 C 
HETATM   10  O   UNL     1      62.408   8.311   0.201  1.00  0.00    -0.293 OA
HETATM   11  C   UNL     1      60.093   8.284   0.788  1.00  0.00     0.096 C 
ENDBRANCH   3   9
TORSDOF 1
ENDMDL
MODEL 2
REMARK VINA RESULT:      -4.6      3.153      4.216
REMARK  1 active torsions:
REMARK  status: ('A' for Active; 'I' for Inactive)
REMARK    1  A    between atoms: C_3  and  C_4 
ROOT
HETATM    1  N   UNL     1      64.118   4.670   3.932  1.00  0.00    -0.191 NA
HETATM    2  C   UNL     1      63.717   5.756   3.850  1.00  0.00     0.099 C 
HETATM    3  C   UNL     1      62.400   9.780   3.549  1.00  0.00     0.009 A 
HETATM    4  C   UNL     1      62.834   9.268   4.779  1.00  0.00     0.016 A 
HETATM    5  C   UNL     1      62.367   8.936   2.429  1.00  0.00     0.016 A 
HETATM    6  C   UNL     1      63.242   7.106   3.753  1.00  0.00     0.044 A 
HETATM    7  C   UNL     1      63.255   7.937   4.878  1.00  0.00     0.023 A 
HETATM    8  C   UNL     1      62.785   7.605   2.530  1.00  0.00     0.023 A 
ENDROOT
BRANCH   3   9
HETATM    9  C   UNL     1      61.985  11.205   3.381  1.00  0.00     0.155 C 
HETATM   10  O   UNL     1      61.847  11.921   4.370  1.00  0.00    -0.293 OA
HETATM   11  C   UNL     1      61.732  11.733   1.992  1.00  0.00     0.096 C 
ENDBRANCH   3   9
TORSDOF 1
ENDMDL
MODEL 3
REMARK VINA RESULT:      -4.6      3.515      4.889
REMARK  1 active torsions:
REMARK  status: ('A' for Active; 'I' for Inactive)
REMARK    1  A    between atoms: C_3  and  C_4 
ROOT
HETATM    1  N   UNL     1      63.488   4.614   0.595  1.00  0.00    -0.191 NA
HETATM    2  C   UNL     1      63.179   5.655   1.006  1.00  0.00     0.099 C 
HETATM    3  C   UNL     1      62.207   9.501   2.517  1.00  0.00     0.009 A 
HETATM    4  C   UNL     1      62.625   8.485   3.386  1.00  0.00     0.016 A 
HETATM    5  C   UNL     1      62.075   9.220   1.150  1.00  0.00     0.016 A 
HETATM    6  C   UNL     1      62.821   6.946   1.519  1.00  0.00     0.044 A 
HETATM    7  C   UNL     1      62.932   7.213   2.887  1.00  0.00     0.023 A 
HETATM    8  C   UNL     1      62.379   7.950   0.652  1.00  0.00     0.023 A 
ENDROOT
BRANCH   3   9
HETATM    9  C   UNL     1      61.912  10.885   2.995  1.00  0.00     0.155 C 
HETATM   10  O   UNL     1      61.876  11.121   4.200  1.00  0.00    -0.293 OA
HETATM   11  C   UNL     1      61.654  11.968   1.979  1.00  0.00     0.096 C 
ENDBRANCH   3   9
TORSDOF 1
ENDMDL
MODEL 4
REMARK VINA RESULT:      -4.5      3.372      4.809
REMARK  1 active torsions:
REMARK  status: ('A' for Active; 'I' for Inactive)
REMARK    1  A    between atoms: C_3  and  C_4 
ROOT
HETATM    1  N   UNL     1      62.364   5.403   0.204  1.00  0.00    -0.191 NA
HETATM    2  C   UNL     1      62.396   6.363   0.858  1.00  0.00     0.099 C 
HETATM    3  C   UNL     1      62.356   9.859   3.263  1.00  0.00     0.009 A 
HETATM    4  C   UNL     1      61.999   9.928   1.911  1.00  0.00     0.016 A 
HETATM    5  C   UNL     1      62.766   8.631   3.802  1.00  0.00     0.016 A 
HETATM    6  C   UNL     1      62.413   7.548   1.664  1.00  0.00     0.044 A 
HETATM    7  C   UNL     1      62.026   8.776   1.116  1.00  0.00     0.023 A 
HETATM    8  C   UNL     1      62.796   7.481   3.007  1.00  0.00     0.023 A 
ENDROOT
BRANCH   3   9
HETATM    9  C   UNL     1      62.299  11.051   4.164  1.00  0.00     0.155 C 
HETATM   10  O   UNL     1      61.781  12.092   3.766  1.00  0.00    -0.293 OA
HETATM   11  C   UNL     1      62.893  10.951   5.545  1.00  0.00     0.096 C 
ENDBRANCH   3   9
TORSDOF 1
ENDMDL
MODEL 5
REMARK VINA RESULT:      -4.5      3.017      4.279
REMARK  1 active torsions:
REMARK  status: ('A' for Active; 'I' for Inactive)
REMARK    1  A    between atoms: C_3  and  C_4 
ROOT
HETATM    1  N   UNL     1      61.368  12.432   1.681  1.00  0.00    -0.191 NA
HETATM    2  C   UNL     1      61.716  11.577   2.385  1.00  0.00     0.099 C 
HETATM    3  C   UNL     1      63.137   8.462   4.894  1.00  0.00     0.009 A 
HETATM    4  C   UNL     1      62.807   8.199   3.558  1.00  0.00     0.016 A 
HETATM    5  C   UNL     1      62.954   9.756   5.402  1.00  0.00     0.016 A 
HETATM    6  C   UNL     1      62.167  10.520   3.242  1.00  0.00     0.044 A 
HETATM    7  C   UNL     1      62.326   9.225   2.736  1.00  0.00     0.023 A 
HETATM    8  C   UNL     1      62.470  10.780   4.582  1.00  0.00     0.023 A 
ENDROOT
BRANCH   3   9
HETATM    9  C   UNL     1      63.697   7.412   5.797  1.00  0.00     0.155 C 
HETATM   10  O   UNL     1      63.328   7.354   6.968  1.00  0.00    -0.293 OA
HETATM   11  C   UNL     1      64.718   6.447   5.251  1.00  0.00     0.096 C 
ENDBRANCH   3   9
TORSDOF 1
ENDMDL
MODEL 6
REMARK VINA RESULT:      -4.5      2.069      2.799
REMARK  1 active torsions:
REMARK  status: ('A' for Active; 'I' for Inactive)
REMARK    1  A    between atoms: C_3  and  C_4 
ROOT
HETATM    1  N   UNL     1      65.295   7.020   7.096  1.00  0.00    -0.191 NA
HETATM    2  C   UNL     1      64.671   7.504   6.246  1.00  0.00     0.099 C 
HETATM    3  C   UNL     1      62.512   9.370   3.103  1.00  0.00     0.009 A 
HETATM    4  C   UNL     1      62.648  10.007   4.342  1.00  0.00     0.016 A 
HETATM    5  C   UNL     1      63.062   8.091   2.926  1.00  0.00     0.016 A 
HETATM    6  C   UNL     1      63.916   8.119   5.193  1.00  0.00     0.044 A 
HETATM    7  C   UNL     1      63.349   9.384   5.382  1.00  0.00     0.023 A 
HETATM    8  C   UNL     1      63.759   7.468   3.965  1.00  0.00     0.023 A 
ENDROOT
BRANCH   3   9
HETATM    9  C   UNL     1      61.814  10.012   1.949  1.00  0.00     0.155 C 
HETATM   10  O   UNL     1      61.311   9.312   1.073  1.00  0.00    -0.293 OA
HETATM   11  C   UNL     1      61.750  11.516   1.880  1.00  0.00     0.096 C 
ENDBRANCH   3   9
TORSDOF 1
ENDMDL
MODEL 7
REMARK VINA RESULT:      -4.4      3.118      4.081
REMARK  1 active torsions:
REMARK  status: ('A' for Active; 'I' for Inactive)
REMARK    1  A    between atoms: C_3  and  C_4 
ROOT
HETATM    1  N   UNL     1      65.389   4.953   5.100  1.00  0.00    -0.191 NA
HETATM    2  C   UNL     1      64.871   5.949   4.802  1.00  0.00     0.099 C 
HETATM    3  C   UNL     1      62.839   9.525   3.755  1.00  0.00     0.009 A 
HETATM    4  C   UNL     1      62.831   8.427   2.885  1.00  0.00     0.016 A 
HETATM    5  C   UNL     1      63.560   9.443   4.955  1.00  0.00     0.016 A 
HETATM    6  C   UNL     1      64.211   7.168   4.436  1.00  0.00     0.044 A 
HETATM    7  C   UNL     1      63.513   7.253   3.227  1.00  0.00     0.023 A 
HETATM    8  C   UNL     1      64.244   8.272   5.294  1.00  0.00     0.023 A 
ENDROOT
BRANCH   3   9
HETATM    9  C   UNL     1      62.089  10.782   3.457  1.00  0.00     0.155 C 
HETATM   10  O   UNL     1      61.732  11.513   4.378  1.00  0.00    -0.293 OA
HETATM   11  C   UNL     1      61.774  11.122   2.022  1.00  0.00     0.096 C 
ENDBRANCH   3   9
TORSDOF 1
ENDMDL
MODEL 8
REMARK VINA RESULT:      -4.3      3.207      4.046
REMARK  1 active torsions:
REMARK  status: ('A' for Active; 'I' for Inactive)
REMARK    1  A    between atoms: C_3  and  C_4 
ROOT
HETATM    1  N   UNL     1      66.741   5.394   5.363  1.00  0.00    -0.191 NA
HETATM    2  C   UNL     1      65.928   6.156   5.037  1.00  0.00     0.099 C 
HETATM    3  C   UNL     1      63.071   9.031   3.774  1.00  0.00     0.009 A 
HETATM    4  C   UNL     1      63.864   9.271   4.904  1.00  0.00     0.016 A 
HETATM    5  C   UNL     1      63.205   7.813   3.091  1.00  0.00     0.016 A 
HETATM    6  C   UNL     1      64.941   7.113   4.627  1.00  0.00     0.044 A 
HETATM    7  C   UNL     1      64.796   8.315   5.326  1.00  0.00     0.023 A 
HETATM    8  C   UNL     1      64.133   6.858   3.514  1.00  0.00     0.023 A 
ENDROOT
BRANCH   3   9
HETATM    9  C   UNL     1      62.096  10.037   3.257  1.00  0.00     0.155 C 
HETATM   10  O   UNL     1      61.619  10.873   4.021  1.00  0.00    -0.293 OA
HETATM   11  C   UNL     1      61.708   9.997   1.801  1.00  0.00     0.096 C 
ENDBRANCH   3   9
TORSDOF 1
ENDMDL
MODEL 9
REMARK VINA RESULT:      -4.2      3.556      5.008
REMARK  1 active torsions:
REMARK  status: ('A' for Active; 'I' for Inactive)
REMARK    1  A    between atoms: C_3  and  C_4 
ROOT
HETATM    1  N   UNL     1      60.186   8.400   1.075  1.00  0.00    -0.191 NA
HETATM    2  C   UNL     1      61.083   8.383   1.811  1.00  0.00     0.099 C 
HETATM    3  C   UNL     1      64.268   8.260   4.614  1.00  0.00     0.009 A 
HETATM    4  C   UNL     1      63.329   9.298   4.656  1.00  0.00     0.016 A 
HETATM    5  C   UNL     1      64.167   7.286   3.610  1.00  0.00     0.016 A 
HETATM    6  C   UNL     1      62.178   8.357   2.737  1.00  0.00     0.044 A 
HETATM    7  C   UNL     1      62.287   9.344   3.722  1.00  0.00     0.023 A 
HETATM    8  C   UNL     1      63.129   7.334   2.675  1.00  0.00     0.023 A 
ENDROOT
BRANCH   3   9
HETATM    9  C   UNL     1      65.371   8.142   5.615  1.00  0.00     0.155 C 
HETATM   10  O   UNL     1      65.774   9.145   6.200  1.00  0.00    -0.293 OA
HETATM   11  C   UNL     1      65.974   6.787   5.880  1.00  0.00     0.096 C 
ENDBRANCH   3   9
TORSDOF 1
ENDMDL
