MODEL 1
REMARK VINA RESULT:      -4.9      0.000      0.000
REMARK  2 active torsions:
REMARK  status: ('A' for Active; 'I' for Inactive)
REMARK    1  A    between atoms: C_1  and  C_2 
REMARK    2  A    between atoms: C_2  and  O_5 
ROOT
HETATM    1  C   UNL     1      62.859   9.369   4.112  1.00  0.00     0.061 A 
HETATM    2  C   UNL     1      62.841   8.601   2.940  1.00  0.00     0.050 A 
HETATM    3 CL   UNL     1      63.529   7.019   2.805  1.00  0.00    -0.083 Cl
HETATM    4  C   UNL     1      62.340  10.676   4.080  1.00  0.00     0.019 A 
HETATM    5  C   UNL     1      62.286   9.136   1.767  1.00  0.00     0.025 A 
HETATM    6  C   UNL     1      61.795  11.203   2.905  1.00  0.00     0.001 A 
HETATM    7  C   UNL     1      61.767  10.431   1.749  1.00  0.00     0.002 A 
ENDROOT
BRANCH   1   8
HETATM    8  C   UNL     1      63.431   8.931   5.410  1.00  0.00     0.294 C 
HETATM    9  O   UNL     1      62.808   8.249   6.208  1.00  0.00    -0.259 OA
BRANCH   8  10
HETATM   10  O   UNL     1      64.727   9.298   5.531  1.00  0.00    -0.322 OA
HETATM   11  C   UNL     1      65.649   8.207   5.545  1.00  0.00     0.213 C 
ENDBRANCH   8  10
ENDBRANCH   1   8
TORSDOF 2
ENDMDL
MODEL 2
REMARK VINA RESULT:      -4.8      1.641      2.204
REMARK  2 active torsions:
REMARK  status: ('A' for Active; 'I' for Inactive)
REMARK    1  A    between atoms: C_1  and  C_2 
REMARK    2  A    between atoms: C_2  and  O_5 
ROOT
HETATM    1  C   UNL     1      62.925   9.132   3.982  1.00  0.00     0.061 A 
HETATM    2  C   UNL     1      62.352  10.349   3.588  1.00  0.00     0.050 A 
HETATM    3 CL   UNL     1      62.155  11.713   4.633  1.00  0.00    -0.083 Cl
HETATM    4  C   UNL     1      62.957   8.064   3.066  1.00  0.00     0.019 A 
HETATM    5  C   UNL     1      61.845  10.490   2.286  1.00  0.00     0.025 A 
HETATM    6  C   UNL     1      62.445   8.212   1.774  1.00  0.00     0.001 A 
HETATM    7  C   UNL     1      61.891   9.426   1.384  1.00  0.00     0.002 A 
ENDROOT
BRANCH   1   8
HETATM    8  C   UNL     1      63.478   8.846   5.330  1.00  0.00     0.294 C 
HETATM    9  O   UNL     1      62.851   8.241   6.185  1.00  0.00    -0.259 OA
BRANCH   8  10
HETATM   10  O   UNL     1      64.765   9.250   5.434  1.00  0.00    -0.322 OA
HETATM   11  C   UNL     1      65.697   8.192   5.666  1.00  0.00     0.213 C 
ENDBRANCH   8  10
ENDBRANCH   1   8
TORSDOF 2
ENDMDL
MODEL 3
REMARK VINA RESULT:      -4.2      2.518      3.985
REMARK  2 active torsions:
REMARK  status: ('A' for Active; 'I' for Inactive)
REMARK    1  A    between atoms: C_1  and  C_2 
REMARK    2  A    between atoms: C_2  and  O_5 
ROOT
HETATM    1  C   UNL     1      62.306   9.404   2.851  1.00  0.00     0.061 A 
HETATM    2  C   UNL     1      63.141   8.691   3.721  1.00  0.00     0.050 A 
HETATM    3 CL   UNL     1      63.698   7.080   3.428  1.00  0.00    -0.083 Cl
HETATM    4  C   UNL     1      61.850  10.680   3.235  1.00  0.00     0.019 A 
HETATM    5  C   UNL     1      63.527   9.265   4.942  1.00  0.00     0.025 A 
HETATM    6  C   UNL     1      62.235  11.242   4.456  1.00  0.00     0.001 A 
HETATM    7  C   UNL     1      63.076  10.534   5.308  1.00  0.00     0.002 A 
ENDROOT
BRANCH   1   8
HETATM    8  C   UNL     1      61.810   8.906   1.543  1.00  0.00     0.294 C 
HETATM    9  O   UNL     1      62.395   9.117   0.493  1.00  0.00    -0.259 OA
BRANCH   8  10
HETATM   10  O   UNL     1      60.713   8.129   1.692  1.00  0.00    -0.322 OA
HETATM   11  C   UNL     1      59.804   8.175   0.591  1.00  0.00     0.213 C 
ENDBRANCH   8  10
ENDBRANCH   1   8
TORSDOF 2
ENDMDL
MODEL 4
REMARK VINA RESULT:      -3.9      3.737      6.602
REMARK  2 active torsions:
REMARK  status: ('A' for Active; 'I' for Inactive)
REMARK    1  A    between atoms: C_1  and  C_2 
REMARK    2  A    between atoms: C_2  and  O_5 
ROOT
HETATM    1  C   UNL     1      66.741   6.533   6.607  1.00  0.00     0.061 A 
HETATM    2  C   UNL     1      67.178   5.892   7.774  1.00  0.00     0.050 A 
HETATM    3 CL   UNL     1      67.091   6.587   9.355  1.00  0.00    -0.083 Cl
HETATM    4  C   UNL     1      66.938   5.901   5.365  1.00  0.00     0.019 A 
HETATM    5  C   UNL     1      67.779   4.626   7.688  1.00  0.00     0.025 A 
HETATM    6  C   UNL     1      67.544   4.643   5.288  1.00  0.00     0.001 A 
HETATM    7  C   UNL     1      67.962   4.005   6.451  1.00  0.00     0.002 A 
ENDROOT
BRANCH   1   8
HETATM    8  C   UNL     1      66.109   7.876   6.557  1.00  0.00     0.294 C 
HETATM    9  O   UNL     1      66.726   8.903   6.788  1.00  0.00    -0.259 OA
BRANCH   8  10
HETATM   10  O   UNL     1      64.825   7.805   6.137  1.00  0.00    -0.322 OA
HETATM   11  C   UNL     1      64.488   8.741   5.112  1.00  0.00     0.213 C 
ENDBRANCH   8  10
ENDBRANCH   1   8
TORSDOF 2
ENDMDL
MODEL 5
REMARK VINA RESULT:      -3.8      1.783      2.287
REMARK  2 active torsions:
REMARK  status: ('A' for Active; 'I' for Inactive)
REMARK    1  A    between atoms: C_1  and  C_2 
REMARK    2  A    between atoms: C_2  and  O_5 
ROOT
HETATM    1  C   UNL     1      63.032   8.721   4.510  1.00  0.00     0.061 A 
HETATM    2  C   UNL     1      62.312   7.618   4.989  1.00  0.00     0.050 A 
HETATM    3 CL   UNL     1      62.767   6.690   6.376  1.00  0.00    -0.083 Cl
HETATM    4  C   UNL     1      62.610   9.348   3.323  1.00  0.00     0.019 A 
HETATM    5  C   UNL     1      61.175   7.175   4.296  1.00  0.00     0.025 A 
HETATM    6  C   UNL     1      61.479   8.897   2.635  1.00  0.00     0.001 A 
HETATM    7  C   UNL     1      60.761   7.811   3.124  1.00  0.00     0.002 A 
ENDROOT
BRANCH   1   8
HETATM    8  C   UNL     1      64.259   9.276   5.135  1.00  0.00     0.294 C 
HETATM    9  O   UNL     1      64.240  10.248   5.874  1.00  0.00    -0.259 OA
BRANCH   8  10
HETATM   10  O   UNL     1      65.344   8.517   4.859  1.00  0.00    -0.322 OA
HETATM   11  C   UNL     1      66.093   8.120   6.009  1.00  0.00     0.213 C 
ENDBRANCH   8  10
ENDBRANCH   1   8
TORSDOF 2
ENDMDL
MODEL 6
REMARK VINA RESULT:      -3.7      2.156      3.102
REMARK  2 active torsions:
REMARK  status: ('A' for Active; 'I' for Inactive)
REMARK    1  A    between atoms: C_1  and  C_2 
REMARK    2  A    between atoms: C_2  and  O_5 
ROOT
HETATM    1  C   UNL     1      63.150   8.225   5.146  1.00  0.00     0.061 A 
HETATM    2  C   UNL     1      62.272   8.263   4.055  1.00  0.00     0.050 A 
HETATM    3 CL   UNL     1      62.408   9.374   2.736  1.00  0.00    -0.083 Cl
HETATM    4  C   UNL     1      62.891   7.331   6.201  1.00  0.00     0.019 A 
HETATM    5  C   UNL     1      61.168   7.396   4.020  1.00  0.00     0.025 A 
HETATM    6  C   UNL     1      61.786   6.475   6.161  1.00  0.00     0.001 A 
HETATM    7  C   UNL     1      60.926   6.507   5.069  1.00  0.00     0.002 A 
ENDROOT
BRANCH   1   8
HETATM    8  C   UNL     1      64.340   9.098   5.314  1.00  0.00     0.294 C 
HETATM    9  O   UNL     1      64.271  10.221   5.787  1.00  0.00    -0.259 OA
BRANCH   8  10
HETATM   10  O   UNL     1      65.480   8.454   4.974  1.00  0.00    -0.322 OA
HETATM   11  C   UNL     1      66.368   8.211   6.066  1.00  0.00     0.213 C 
ENDBRANCH   8  10
ENDBRANCH   1   8
TORSDOF 2
ENDMDL
MODEL 7
REMARK VINA RESULT:      -3.7      1.992      2.803
REMARK  2 active torsions:
REMARK  status: ('A' for Active; 'I' for Inactive)
REMARK    1  A    between atoms: C_1  and  C_2 
REMARK    2  A    between atoms: C_2  and  O_5 
ROOT
HETATM    1  C   UNL     1      62.749   8.764   3.096  1.00  0.00     0.061 A 
HETATM    2  C   UNL     1      62.250   9.632   2.115  1.00  0.00     0.050 A 
HETATM    3 CL   UNL     1      61.811  11.279   2.408  1.00  0.00    -0.083 Cl
HETATM    4  C   UNL     1      62.994   7.420   2.757  1.00  0.00     0.019 A 
HETATM    5  C   UNL     1      62.029   9.156   0.813  1.00  0.00     0.025 A 
HETATM    6  C   UNL     1      62.765   6.953   1.459  1.00  0.00     0.001 A 
HETATM    7  C   UNL     1      62.285   7.823   0.487  1.00  0.00     0.002 A 
ENDROOT
BRANCH   1   8
HETATM    8  C   UNL     1      63.008   9.133   4.510  1.00  0.00     0.294 C 
HETATM    9  O   UNL     1      62.642  10.194   4.991  1.00  0.00    -0.259 OA
BRANCH   8  10
HETATM   10  O   UNL     1      63.597   8.122   5.187  1.00  0.00    -0.322 OA
HETATM   11  C   UNL     1      62.788   7.553   6.218  1.00  0.00     0.213 C 
ENDBRANCH   8  10
ENDBRANCH   1   8
TORSDOF 2
ENDMDL
MODEL 8
REMARK VINA RESULT:      -3.7      2.117      4.981
REMARK  2 active torsions:
REMARK  status: ('A' for Active; 'I' for Inactive)
REMARK    1  A    between atoms: C_1  and  C_2 
REMARK    2  A    between atoms: C_2  and  O_5 
ROOT
HETATM    1  C   UNL     1      65.440   7.633   5.350  1.00  0.00     0.061 A 
HETATM    2  C   UNL     1      65.027   6.395   5.860  1.00  0.00     0.050 A 
HETATM    3 CL   UNL     1      63.405   6.036   6.341  1.00  0.00    -0.083 Cl
HETATM    4  C   UNL     1      66.805   7.835   5.069  1.00  0.00     0.019 A 
HETATM    5  C   UNL     1      65.971   5.375   6.059  1.00  0.00     0.025 A 
HETATM    6  C   UNL     1      67.738   6.815   5.276  1.00  0.00     0.001 A 
HETATM    7  C   UNL     1      67.320   5.584   5.769  1.00  0.00     0.002 A 
ENDROOT
BRANCH   1   8
HETATM    8  C   UNL     1      64.551   8.797   5.111  1.00  0.00     0.294 C 
HETATM    9  O   UNL     1      64.623   9.826   5.764  1.00  0.00    -0.259 OA
BRANCH   8  10
HETATM   10  O   UNL     1      63.749   8.598   4.041  1.00  0.00    -0.322 OA
HETATM   11  C   UNL     1      62.586   9.427   4.013  1.00  0.00     0.213 C 
ENDBRANCH   8  10
ENDBRANCH   1   8
TORSDOF 2
ENDMDL
MODEL 9
REMARK VINA RESULT:      -3.6      2.073      2.920
REMARK  2 active torsions:
REMARK  status: ('A' for Active; 'I' for Inactive)
REMARK    1  A    between atoms: C_1  and  C_2 
REMARK    2  A    between atoms: C_2  and  O_5 
ROOT
HETATM    1  C   UNL     1      64.962   7.791   4.761  1.00  0.00     0.061 A 
HETATM    2  C   UNL     1      64.606   6.956   3.693  1.00  0.00     0.050 A 
HETATM    3 CL   UNL     1      65.529   5.586   3.182  1.00  0.00    -0.083 Cl
HETATM    4  C   UNL     1      64.175   8.926   5.032  1.00  0.00     0.019 A 
HETATM    5  C   UNL     1      63.464   7.250   2.931  1.00  0.00     0.025 A 
HETATM    6  C   UNL     1      63.042   9.214   4.265  1.00  0.00     0.001 A 
HETATM    7  C   UNL     1      62.686   8.374   3.215  1.00  0.00     0.002 A 
ENDROOT
BRANCH   1   8
HETATM    8  C   UNL     1      66.151   7.604   5.630  1.00  0.00     0.294 C 
HETATM    9  O   UNL     1      67.128   8.334   5.574  1.00  0.00    -0.259 OA
BRANCH   8  10
HETATM   10  O   UNL     1      65.960   6.610   6.526  1.00  0.00    -0.322 OA
HETATM   11  C   UNL     1      66.482   6.881   7.827  1.00  0.00     0.213 C 
ENDBRANCH   8  10
ENDBRANCH   1   8
TORSDOF 2
ENDMDL
