MODEL 1
REMARK VINA RESULT:      -5.5      0.000      0.000
REMARK  1 active torsions:
REMARK  status: ('A' for Active; 'I' for Inactive)
REMARK       I    between atoms: C_2  and  N_3 
REMARK    1  A    between atoms: N_3  and  C_4 
ROOT
HETATM    1  C   UNL     1      62.900   8.199   2.769  1.00  0.00    -0.050 A 
HETATM    2  C   UNL     1      63.781   8.378   4.992  1.00  0.00     0.035 A 
HETATM    3  C   UNL     1      63.629   7.650   3.813  1.00  0.00     0.037 A 
HETATM    4  C   UNL     1      62.300   9.453   2.875  1.00  0.00    -0.052 A 
HETATM    5  C   UNL     1      62.416  10.187   4.037  1.00  0.00     0.010 A 
HETATM    6  C   UNL     1      63.166   9.647   5.090  1.00  0.00     0.030 A 
HETATM    7  C   UNL     1      62.606   7.569   1.444  1.00  0.00     0.039 C 
HETATM    8  C   UNL     1      62.169   8.793   0.631  1.00  0.00     0.009 C 
HETATM    9  C   UNL     1      61.542   9.782   1.627  1.00  0.00     0.039 C 
ENDROOT
BRANCH   2  10
HETATM   10  N   UNL     1      64.510   7.950   6.118  1.00  0.00    -0.328 N 
HETATM   11  C   UNL     1      65.828   7.696   6.356  1.00  0.00     0.218 C 
HETATM   12  O   UNL     1      66.151   7.332   7.489  1.00  0.00    -0.274 OA
HETATM   13  C   UNL     1      66.873   7.842   5.289  1.00  0.00     0.117 C 
HETATM   14  H   UNL     1      63.943   7.803   6.909  1.00  0.00     0.169 HD
ENDBRANCH   2  10
TORSDOF 1
ENDMDL
MODEL 2
REMARK VINA RESULT:      -5.1      1.723      2.234
REMARK  1 active torsions:
REMARK  status: ('A' for Active; 'I' for Inactive)
REMARK       I    between atoms: C_2  and  N_3 
REMARK    1  A    between atoms: N_3  and  C_4 
ROOT
HETATM    1  C   UNL     1      62.501   9.223   2.806  1.00  0.00    -0.050 A 
HETATM    2  C   UNL     1      63.625   7.508   4.050  1.00  0.00     0.035 A 
HETATM    3  C   UNL     1      63.037   7.945   2.865  1.00  0.00     0.037 A 
HETATM    4  C   UNL     1      62.521  10.076   3.909  1.00  0.00    -0.052 A 
HETATM    5  C   UNL     1      63.077   9.664   5.102  1.00  0.00     0.010 A 
HETATM    6  C   UNL     1      63.636   8.380   5.163  1.00  0.00     0.030 A 
HETATM    7  C   UNL     1      61.812   9.860   1.642  1.00  0.00     0.039 C 
HETATM    8  C   UNL     1      61.856  11.338   2.049  1.00  0.00     0.009 C 
HETATM    9  C   UNL     1      61.841  11.370   3.587  1.00  0.00     0.039 C 
ENDROOT
BRANCH   2  10
HETATM   10  N   UNL     1      64.222   6.247   4.241  1.00  0.00    -0.328 N 
HETATM   11  C   UNL     1      65.508   5.797   4.244  1.00  0.00     0.218 C 
HETATM   12  O   UNL     1      65.700   4.597   4.457  1.00  0.00    -0.274 OA
HETATM   13  C   UNL     1      66.673   6.710   3.998  1.00  0.00     0.117 C 
HETATM   14  H   UNL     1      63.565   5.534   4.409  1.00  0.00     0.169 HD
ENDBRANCH   2  10
TORSDOF 1
ENDMDL
MODEL 3
REMARK VINA RESULT:      -5.1      0.727      1.882
REMARK  1 active torsions:
REMARK  status: ('A' for Active; 'I' for Inactive)
REMARK       I    between atoms: C_2  and  N_3 
REMARK    1  A    between atoms: N_3  and  C_4 
ROOT
HETATM    1  C   UNL     1      62.842   9.086   3.395  1.00  0.00    -0.050 A 
HETATM    2  C   UNL     1      64.184   7.872   4.968  1.00  0.00     0.035 A 
HETATM    3  C   UNL     1      63.468   9.019   4.631  1.00  0.00     0.037 A 
HETATM    4  C   UNL     1      62.925   8.042   2.474  1.00  0.00    -0.052 A 
HETATM    5  C   UNL     1      63.644   6.903   2.772  1.00  0.00     0.010 A 
HETATM    6  C   UNL     1      64.265   6.821   4.026  1.00  0.00     0.030 A 
HETATM    7  C   UNL     1      62.054  10.232   2.843  1.00  0.00     0.039 C 
HETATM    8  C   UNL     1      61.303   9.544   1.697  1.00  0.00     0.009 C 
HETATM    9  C   UNL     1      62.200   8.393   1.213  1.00  0.00     0.039 C 
ENDROOT
BRANCH   2  10
HETATM   10  N   UNL     1      64.848   7.664   6.193  1.00  0.00    -0.328 N 
HETATM   11  C   UNL     1      66.157   7.652   6.572  1.00  0.00     0.218 C 
HETATM   12  O   UNL     1      66.411   7.440   7.761  1.00  0.00    -0.274 OA
HETATM   13  C   UNL     1      67.273   7.882   5.596  1.00  0.00     0.117 C 
HETATM   14  H   UNL     1      64.230   7.490   6.939  1.00  0.00     0.169 HD
ENDBRANCH   2  10
TORSDOF 1
ENDMDL
MODEL 4
REMARK VINA RESULT:      -4.8      2.944      5.268
REMARK  1 active torsions:
REMARK  status: ('A' for Active; 'I' for Inactive)
REMARK       I    between atoms: C_2  and  N_3 
REMARK    1  A    between atoms: N_3  and  C_4 
ROOT
HETATM    1  C   UNL     1      65.869   7.489   5.535  1.00  0.00    -0.050 A 
HETATM    2  C   UNL     1      63.713   8.362   4.952  1.00  0.00     0.035 A 
HETATM    3  C   UNL     1      65.102   8.425   4.858  1.00  0.00     0.037 A 
HETATM    4  C   UNL     1      65.286   6.496   6.322  1.00  0.00    -0.052 A 
HETATM    5  C   UNL     1      63.915   6.422   6.450  1.00  0.00     0.010 A 
HETATM    6  C   UNL     1      63.132   7.354   5.755  1.00  0.00     0.030 A 
HETATM    7  C   UNL     1      67.362   7.407   5.578  1.00  0.00     0.039 C 
HETATM    8  C   UNL     1      67.560   5.977   6.095  1.00  0.00     0.009 C 
HETATM    9  C   UNL     1      66.338   5.653   6.971  1.00  0.00     0.039 C 
ENDROOT
BRANCH   2  10
HETATM   10  N   UNL     1      62.817   9.234   4.302  1.00  0.00    -0.328 N 
HETATM   11  C   UNL     1      62.391  10.506   4.539  1.00  0.00     0.218 C 
HETATM   12  O   UNL     1      61.582  11.001   3.750  1.00  0.00    -0.274 OA
HETATM   13  C   UNL     1      62.871  11.301   5.717  1.00  0.00     0.117 C 
HETATM   14  H   UNL     1      62.411   8.836   3.499  1.00  0.00     0.169 HD
ENDBRANCH   2  10
TORSDOF 1
ENDMDL
MODEL 5
REMARK VINA RESULT:      -4.6      2.916      4.959
REMARK  1 active torsions:
REMARK  status: ('A' for Active; 'I' for Inactive)
REMARK       I    between atoms: C_2  and  N_3 
REMARK    1  A    between atoms: N_3  and  C_4 
ROOT
HETATM    1  C   UNL     1      63.251   6.471   5.845  1.00  0.00    -0.050 A 
HETATM    2  C   UNL     1      63.357   8.808   5.318  1.00  0.00     0.035 A 
HETATM    3  C   UNL     1      62.626   7.706   5.758  1.00  0.00     0.037 A 
HETATM    4  C   UNL     1      64.589   6.301   5.488  1.00  0.00    -0.052 A 
HETATM    5  C   UNL     1      65.331   7.369   5.030  1.00  0.00     0.010 A 
HETATM    6  C   UNL     1      64.711   8.624   4.956  1.00  0.00     0.030 A 
HETATM    7  C   UNL     1      62.635   5.175   6.266  1.00  0.00     0.039 C 
HETATM    8  C   UNL     1      63.886   4.339   6.560  1.00  0.00     0.009 C 
HETATM    9  C   UNL     1      64.995   4.868   5.635  1.00  0.00     0.039 C 
ENDROOT
BRANCH   2  10
HETATM   10  N   UNL     1      62.854  10.118   5.202  1.00  0.00    -0.328 N 
HETATM   11  C   UNL     1      62.244  10.816   4.203  1.00  0.00     0.218 C 
HETATM   12  O   UNL     1      61.909  11.981   4.433  1.00  0.00    -0.274 OA
HETATM   13  C   UNL     1      61.981  10.212   2.855  1.00  0.00     0.117 C 
HETATM   14  H   UNL     1      62.966  10.646   6.026  1.00  0.00     0.169 HD
ENDBRANCH   2  10
TORSDOF 1
ENDMDL
MODEL 6
REMARK VINA RESULT:      -4.5      3.697      5.313
REMARK  1 active torsions:
REMARK  status: ('A' for Active; 'I' for Inactive)
REMARK       I    between atoms: C_2  and  N_3 
REMARK    1  A    between atoms: N_3  and  C_4 
ROOT
HETATM    1  C   UNL     1      63.528   7.676   3.509  1.00  0.00    -0.050 A 
HETATM    2  C   UNL     1      61.430   8.485   2.676  1.00  0.00     0.035 A 
HETATM    3  C   UNL     1      62.451   7.537   2.646  1.00  0.00     0.037 A 
HETATM    4  C   UNL     1      63.625   8.750   4.393  1.00  0.00    -0.052 A 
HETATM    5  C   UNL     1      62.640   9.715   4.429  1.00  0.00     0.010 A 
HETATM    6  C   UNL     1      61.540   9.572   3.573  1.00  0.00     0.030 A 
HETATM    7  C   UNL     1      64.725   6.784   3.610  1.00  0.00     0.039 C 
HETATM    8  C   UNL     1      65.288   7.205   4.972  1.00  0.00     0.009 C 
HETATM    9  C   UNL     1      64.901   8.680   5.170  1.00  0.00     0.039 C 
ENDROOT
BRANCH   2  10
HETATM   10  N   UNL     1      60.274   8.455   1.873  1.00  0.00    -0.328 N 
HETATM   11  C   UNL     1      59.134   7.708   1.879  1.00  0.00     0.218 C 
HETATM   12  O   UNL     1      58.285   7.944   1.015  1.00  0.00    -0.274 OA
HETATM   13  C   UNL     1      58.895   6.625   2.889  1.00  0.00     0.117 C 
HETATM   14  H   UNL     1      60.294   9.120   1.148  1.00  0.00     0.169 HD
ENDBRANCH   2  10
TORSDOF 1
ENDMDL
MODEL 7
REMARK VINA RESULT:      -4.5      2.883      5.107
REMARK  1 active torsions:
REMARK  status: ('A' for Active; 'I' for Inactive)
REMARK       I    between atoms: C_2  and  N_3 
REMARK    1  A    between atoms: N_3  and  C_4 
ROOT
HETATM    1  C   UNL     1      65.439   6.795   3.904  1.00  0.00    -0.050 A 
HETATM    2  C   UNL     1      63.220   7.616   3.513  1.00  0.00     0.035 A 
HETATM    3  C   UNL     1      64.230   6.698   3.231  1.00  0.00     0.037 A 
HETATM    4  C   UNL     1      65.676   7.799   4.843  1.00  0.00    -0.052 A 
HETATM    5  C   UNL     1      64.703   8.734   5.127  1.00  0.00     0.010 A 
HETATM    6  C   UNL     1      63.472   8.631   4.464  1.00  0.00     0.030 A 
HETATM    7  C   UNL     1      66.644   5.927   3.725  1.00  0.00     0.039 C 
HETATM    8  C   UNL     1      67.431   6.254   5.000  1.00  0.00     0.009 C 
HETATM    9  C   UNL     1      67.069   7.699   5.381  1.00  0.00     0.039 C 
ENDROOT
BRANCH   2  10
HETATM   10  N   UNL     1      61.943   7.620   2.921  1.00  0.00    -0.328 N 
HETATM   11  C   UNL     1      61.402   8.242   1.835  1.00  0.00     0.218 C 
HETATM   12  O   UNL     1      60.217   8.021   1.574  1.00  0.00    -0.274 OA
HETATM   13  C   UNL     1      62.199   9.174   0.970  1.00  0.00     0.117 C 
HETATM   14  H   UNL     1      61.299   7.046   3.395  1.00  0.00     0.169 HD
ENDBRANCH   2  10
TORSDOF 1
ENDMDL
MODEL 8
REMARK VINA RESULT:      -4.5      3.094      4.386
REMARK  1 active torsions:
REMARK  status: ('A' for Active; 'I' for Inactive)
REMARK       I    between atoms: C_2  and  N_3 
REMARK    1  A    between atoms: N_3  and  C_4 
ROOT
HETATM    1  C   UNL     1      62.448   9.370   3.209  1.00  0.00    -0.050 A 
HETATM    2  C   UNL     1      62.565   7.184   2.229  1.00  0.00     0.035 A 
HETATM    3  C   UNL     1      62.706   8.014   3.340  1.00  0.00     0.037 A 
HETATM    4  C   UNL     1      62.068   9.928   1.989  1.00  0.00    -0.052 A 
HETATM    5  C   UNL     1      61.940   9.136   0.867  1.00  0.00     0.010 A 
HETATM    6  C   UNL     1      62.183   7.761   0.996  1.00  0.00     0.030 A 
HETATM    7  C   UNL     1      62.567  10.418   4.270  1.00  0.00     0.039 C 
HETATM    8  C   UNL     1      61.760  11.561   3.642  1.00  0.00     0.009 C 
HETATM    9  C   UNL     1      61.897  11.409   2.118  1.00  0.00     0.039 C 
ENDROOT
BRANCH   2  10
HETATM   10  N   UNL     1      62.775   5.792   2.227  1.00  0.00    -0.328 N 
HETATM   11  C   UNL     1      62.007   4.716   2.556  1.00  0.00     0.218 C 
HETATM   12  O   UNL     1      62.501   3.593   2.430  1.00  0.00    -0.274 OA
HETATM   13  C   UNL     1      60.602   4.864   3.063  1.00  0.00     0.117 C 
HETATM   14  H   UNL     1      63.675   5.541   1.918  1.00  0.00     0.169 HD
ENDBRANCH   2  10
TORSDOF 1
ENDMDL
MODEL 9
REMARK VINA RESULT:      -4.5      2.123      2.672
REMARK  1 active torsions:
REMARK  status: ('A' for Active; 'I' for Inactive)
REMARK       I    between atoms: C_2  and  N_3 
REMARK    1  A    between atoms: N_3  and  C_4 
ROOT
HETATM    1  C   UNL     1      60.741   7.416   2.560  1.00  0.00    -0.050 A 
HETATM    2  C   UNL     1      62.406   8.842   3.532  1.00  0.00     0.035 A 
HETATM    3  C   UNL     1      61.599   7.708   3.609  1.00  0.00     0.037 A 
HETATM    4  C   UNL     1      60.652   8.237   1.436  1.00  0.00    -0.052 A 
HETATM    5  C   UNL     1      61.423   9.377   1.341  1.00  0.00     0.010 A 
HETATM    6  C   UNL     1      62.305   9.670   2.391  1.00  0.00     0.030 A 
HETATM    7  C   UNL     1      59.786   6.268   2.467  1.00  0.00     0.039 C 
HETATM    8  C   UNL     1      59.482   6.263   0.964  1.00  0.00     0.009 C 
HETATM    9  C   UNL     1      59.624   7.716   0.483  1.00  0.00     0.039 C 
ENDROOT
BRANCH   2  10
HETATM   10  N   UNL     1      63.332   9.244   4.514  1.00  0.00    -0.328 N 
HETATM   11  C   UNL     1      64.495   8.719   4.992  1.00  0.00     0.218 C 
HETATM   12  O   UNL     1      65.089   9.342   5.876  1.00  0.00    -0.274 OA
HETATM   13  C   UNL     1      65.056   7.425   4.481  1.00  0.00     0.117 C 
HETATM   14  H   UNL     1      63.086  10.092   4.949  1.00  0.00     0.169 HD
ENDBRANCH   2  10
TORSDOF 1
ENDMDL
