MODEL 1
REMARK VINA RESULT:      -5.6      0.000      0.000
REMARK  2 active torsions:
REMARK  status: ('A' for Active; 'I' for Inactive)
REMARK    1  A    between atoms: C_1  and  C_7 
REMARK    2  A    between atoms: C_4  and  N_8 
ROOT
HETATM    1  C   UNL     1      63.282   8.272   5.001  1.00  0.00     0.093 A 
HETATM    2  N   UNL     1      62.777   8.343   6.246  1.00  0.00    -0.258 N 
ATOM      3  HN  UNL     1      62.025   8.954   6.564  1.00  0.00     0.195 HD
HETATM    4  C   UNL     1      64.338   7.306   4.964  1.00  0.00     0.087 A 
HETATM    5  C   UNL     1      64.406   6.808   6.240  1.00  0.00     0.101 A 
HETATM    6  O   UNL     1      63.473   7.428   7.007  1.00  0.00    -0.240 OA
HETATM    7  C   UNL     1      65.252   5.810   6.920  1.00  0.00     0.081 C 
ENDROOT
BRANCH   1   8
HETATM    8  C   UNL     1      62.759   9.128   3.933  1.00  0.00    -0.005 A 
HETATM    9  C   UNL     1      62.383  10.451   4.215  1.00  0.00     0.014 A 
HETATM   10  C   UNL     1      61.890  11.285   3.206  1.00  0.00     0.001 A 
HETATM   11  C   UNL     1      61.766  10.805   1.906  1.00  0.00     0.000 A 
HETATM   12  C   UNL     1      62.123   9.491   1.613  1.00  0.00     0.001 A 
HETATM   13  C   UNL     1      62.610   8.655   2.622  1.00  0.00     0.014 A 
ENDBRANCH   1   8
BRANCH   4  14
HETATM   14  N   UNL     1      65.139   6.947   3.936  1.00  0.00    -0.395 N 
HETATM   15  H   UNL     1      65.285   5.994   3.735  1.00  0.00     0.156 HD
HETATM   16  H   UNL     1      65.577   7.638   3.388  1.00  0.00     0.156 HD
ENDBRANCH   4  14
TORSDOF 2
ENDMDL
MODEL 2
REMARK VINA RESULT:      -5.3      1.453      1.684
REMARK  2 active torsions:
REMARK  status: ('A' for Active; 'I' for Inactive)
REMARK    1  A    between atoms: C_1  and  C_7 
REMARK    2  A    between atoms: C_4  and  N_8 
ROOT
HETATM    1  C   UNL     1      64.349   8.160   5.642  1.00  0.00     0.093 A 
HETATM    2  N   UNL     1      65.525   8.658   6.066  1.00  0.00    -0.258 N 
ATOM      3  HN  UNL     1      65.926   9.563   5.823  1.00  0.00     0.195 HD
HETATM    4  C   UNL     1      64.154   6.853   6.191  1.00  0.00     0.087 A 
HETATM    5  C   UNL     1      65.262   6.625   6.967  1.00  0.00     0.101 A 
HETATM    6  O   UNL     1      66.081   7.705   6.892  1.00  0.00    -0.240 OA
HETATM    7  C   UNL     1      65.731   5.505   7.801  1.00  0.00     0.081 C 
ENDROOT
BRANCH   1   8
HETATM    8  C   UNL     1      63.496   8.931   4.733  1.00  0.00    -0.005 A 
HETATM    9  C   UNL     1      62.992  10.178   5.133  1.00  0.00     0.014 A 
HETATM   10  C   UNL     1      62.183  10.931   4.276  1.00  0.00     0.001 A 
HETATM   11  C   UNL     1      61.869  10.445   3.011  1.00  0.00     0.000 A 
HETATM   12  C   UNL     1      62.351   9.202   2.604  1.00  0.00     0.001 A 
HETATM   13  C   UNL     1      63.153   8.446   3.464  1.00  0.00     0.014 A 
ENDBRANCH   1   8
BRANCH   4  14
HETATM   14  N   UNL     1      63.137   5.982   5.998  1.00  0.00    -0.395 N 
HETATM   15  H   UNL     1      63.324   5.071   5.673  1.00  0.00     0.156 HD
HETATM   16  H   UNL     1      62.210   6.258   6.181  1.00  0.00     0.156 HD
ENDBRANCH   4  14
TORSDOF 2
ENDMDL
MODEL 3
REMARK VINA RESULT:      -5.0      2.162      4.955
REMARK  2 active torsions:
REMARK  status: ('A' for Active; 'I' for Inactive)
REMARK    1  A    between atoms: C_1  and  C_7 
REMARK    2  A    between atoms: C_4  and  N_8 
ROOT
HETATM    1  C   UNL     1      62.785   9.651   4.449  1.00  0.00     0.093 A 
HETATM    2  N   UNL     1      62.627  10.809   5.116  1.00  0.00    -0.258 N 
ATOM      3  HN  UNL     1      62.826  10.975   6.102  1.00  0.00     0.195 HD
HETATM    4  C   UNL     1      62.377   9.821   3.088  1.00  0.00     0.087 A 
HETATM    5  C   UNL     1      61.994  11.134   2.994  1.00  0.00     0.101 A 
HETATM    6  O   UNL     1      62.144  11.725   4.207  1.00  0.00    -0.240 OA
HETATM    7  C   UNL     1      61.462  11.984   1.914  1.00  0.00     0.081 C 
ENDROOT
BRANCH   1   8
HETATM    8  C   UNL     1      63.287   8.457   5.135  1.00  0.00    -0.005 A 
HETATM    9  C   UNL     1      64.667   8.282   5.322  1.00  0.00     0.014 A 
HETATM   10  C   UNL     1      65.162   7.153   5.981  1.00  0.00     0.001 A 
HETATM   11  C   UNL     1      64.284   6.186   6.459  1.00  0.00     0.000 A 
HETATM   12  C   UNL     1      62.912   6.338   6.270  1.00  0.00     0.001 A 
HETATM   13  C   UNL     1      62.417   7.463   5.604  1.00  0.00     0.014 A 
ENDBRANCH   1   8
BRANCH   4  14
HETATM   14  N   UNL     1      62.332   8.915   2.085  1.00  0.00    -0.395 N 
HETATM   15  H   UNL     1      62.597   9.176   1.173  1.00  0.00     0.156 HD
HETATM   16  H   UNL     1      62.035   7.994   2.266  1.00  0.00     0.156 HD
ENDBRANCH   4  14
TORSDOF 2
ENDMDL
MODEL 4
REMARK VINA RESULT:      -4.8      1.796      2.148
REMARK  2 active torsions:
REMARK  status: ('A' for Active; 'I' for Inactive)
REMARK    1  A    between atoms: C_1  and  C_7 
REMARK    2  A    between atoms: C_4  and  N_8 
ROOT
HETATM    1  C   UNL     1      62.322   7.872   4.630  1.00  0.00     0.093 A 
HETATM    2  N   UNL     1      63.476   7.683   5.295  1.00  0.00    -0.258 N 
ATOM      3  HN  UNL     1      64.317   8.257   5.232  1.00  0.00     0.195 HD
HETATM    4  C   UNL     1      61.392   6.841   4.977  1.00  0.00     0.087 A 
HETATM    5  C   UNL     1      62.055   6.058   5.888  1.00  0.00     0.101 A 
HETATM    6  O   UNL     1      63.301   6.562   6.078  1.00  0.00    -0.240 OA
HETATM    7  C   UNL     1      61.721   4.838   6.644  1.00  0.00     0.081 C 
ENDROOT
BRANCH   1   8
HETATM    8  C   UNL     1      62.174   8.992   3.696  1.00  0.00    -0.005 A 
HETATM    9  C   UNL     1      62.049  10.302   4.186  1.00  0.00     0.014 A 
HETATM   10  C   UNL     1      61.914  11.383   3.310  1.00  0.00     0.001 A 
HETATM   11  C   UNL     1      61.902  11.167   1.935  1.00  0.00     0.000 A 
HETATM   12  C   UNL     1      62.012   9.872   1.434  1.00  0.00     0.001 A 
HETATM   13  C   UNL     1      62.139   8.789   2.310  1.00  0.00     0.014 A 
ENDBRANCH   1   8
BRANCH   4  14
HETATM   14  N   UNL     1      60.139   6.624   4.517  1.00  0.00    -0.395 N 
HETATM   15  H   UNL     1      59.998   6.367   3.577  1.00  0.00     0.156 HD
HETATM   16  H   UNL     1      59.369   6.722   5.122  1.00  0.00     0.156 HD
ENDBRANCH   4  14
TORSDOF 2
ENDMDL
MODEL 5
REMARK VINA RESULT:      -4.7      1.951      5.292
REMARK  2 active torsions:
REMARK  status: ('A' for Active; 'I' for Inactive)
REMARK    1  A    between atoms: C_1  and  C_7 
REMARK    2  A    between atoms: C_4  and  N_8 
ROOT
HETATM    1  C   UNL     1      64.055   8.583   4.773  1.00  0.00     0.093 A 
HETATM    2  N   UNL     1      63.536   8.062   3.646  1.00  0.00    -0.258 N 
ATOM      3  HN  UNL     1      63.749   7.150   3.242  1.00  0.00     0.195 HD
HETATM    4  C   UNL     1      63.518   9.891   4.990  1.00  0.00     0.087 A 
HETATM    5  C   UNL     1      62.650  10.096   3.947  1.00  0.00     0.101 A 
HETATM    6  O   UNL     1      62.661   9.001   3.144  1.00  0.00    -0.240 OA
HETATM    7  C   UNL     1      61.774  11.204   3.530  1.00  0.00     0.081 C 
ENDROOT
BRANCH   1   8
HETATM    8  C   UNL     1      65.036   7.831   5.560  1.00  0.00    -0.005 A 
HETATM    9  C   UNL     1      66.404   7.934   5.261  1.00  0.00     0.014 A 
HETATM   10  C   UNL     1      67.354   7.230   6.007  1.00  0.00     0.001 A 
HETATM   11  C   UNL     1      66.948   6.415   7.059  1.00  0.00     0.000 A 
HETATM   12  C   UNL     1      65.593   6.291   7.360  1.00  0.00     0.001 A 
HETATM   13  C   UNL     1      64.642   6.989   6.610  1.00  0.00     0.014 A 
ENDBRANCH   1   8
BRANCH   4  14
HETATM   14  N   UNL     1      63.791  10.781   5.971  1.00  0.00    -0.395 N 
HETATM   15  H   UNL     1      64.266  10.488   6.783  1.00  0.00     0.156 HD
HETATM   16  H   UNL     1      63.517  11.722   5.874  1.00  0.00     0.156 HD
ENDBRANCH   4  14
TORSDOF 2
ENDMDL
MODEL 6
REMARK VINA RESULT:      -4.7      1.806      2.254
REMARK  2 active torsions:
REMARK  status: ('A' for Active; 'I' for Inactive)
REMARK    1  A    between atoms: C_1  and  C_7 
REMARK    2  A    between atoms: C_4  and  N_8 
ROOT
HETATM    1  C   UNL     1      63.473   8.563   4.142  1.00  0.00     0.093 A 
HETATM    2  N   UNL     1      63.541   9.627   4.963  1.00  0.00    -0.258 N 
ATOM      3  HN  UNL     1      62.877  10.399   5.016  1.00  0.00     0.195 HD
HETATM    4  C   UNL     1      64.604   7.713   4.360  1.00  0.00     0.087 A 
HETATM    5  C   UNL     1      65.318   8.325   5.359  1.00  0.00     0.101 A 
HETATM    6  O   UNL     1      64.682   9.469   5.720  1.00  0.00    -0.240 OA
HETATM    7  C   UNL     1      66.576   8.025   6.067  1.00  0.00     0.081 C 
ENDROOT
BRANCH   1   8
HETATM    8  C   UNL     1      62.366   8.423   3.192  1.00  0.00    -0.005 A 
HETATM    9  C   UNL     1      62.490   8.933   1.890  1.00  0.00     0.014 A 
HETATM   10  C   UNL     1      61.447   8.801   0.967  1.00  0.00     0.001 A 
HETATM   11  C   UNL     1      60.269   8.159   1.337  1.00  0.00     0.000 A 
HETATM   12  C   UNL     1      60.126   7.659   2.629  1.00  0.00     0.001 A 
HETATM   13  C   UNL     1      61.165   7.797   3.554  1.00  0.00     0.014 A 
ENDBRANCH   1   8
BRANCH   4  14
HETATM   14  N   UNL     1      64.953   6.568   3.731  1.00  0.00    -0.395 N 
HETATM   15  H   UNL     1      64.445   6.265   2.944  1.00  0.00     0.156 HD
HETATM   16  H   UNL     1      65.714   6.038   4.060  1.00  0.00     0.156 HD
ENDBRANCH   4  14
TORSDOF 2
ENDMDL
MODEL 7
REMARK VINA RESULT:      -4.6      1.730      2.575
REMARK  2 active torsions:
REMARK  status: ('A' for Active; 'I' for Inactive)
REMARK    1  A    between atoms: C_1  and  C_7 
REMARK    2  A    between atoms: C_4  and  N_8 
ROOT
HETATM    1  C   UNL     1      64.661   7.722   5.456  1.00  0.00     0.093 A 
HETATM    2  N   UNL     1      65.555   8.668   5.796  1.00  0.00    -0.258 N 
ATOM      3  HN  UNL     1      65.712   9.556   5.320  1.00  0.00     0.195 HD
HETATM    4  C   UNL     1      64.762   6.617   6.360  1.00  0.00     0.087 A 
HETATM    5  C   UNL     1      65.744   6.976   7.249  1.00  0.00     0.101 A 
HETATM    6  O   UNL     1      66.217   8.203   6.912  1.00  0.00    -0.240 OA
HETATM    7  C   UNL     1      66.371   6.332   8.416  1.00  0.00     0.081 C 
ENDROOT
BRANCH   1   8
HETATM    8  C   UNL     1      63.785   7.905   4.295  1.00  0.00    -0.005 A 
HETATM    9  C   UNL     1      63.728   6.920   3.297  1.00  0.00     0.014 A 
HETATM   10  C   UNL     1      62.892   7.074   2.187  1.00  0.00     0.001 A 
HETATM   11  C   UNL     1      62.104   8.214   2.062  1.00  0.00     0.000 A 
HETATM   12  C   UNL     1      62.159   9.207   3.039  1.00  0.00     0.001 A 
HETATM   13  C   UNL     1      63.000   9.056   4.145  1.00  0.00     0.014 A 
ENDBRANCH   1   8
BRANCH   4  14
HETATM   14  N   UNL     1      64.088   5.445   6.364  1.00  0.00    -0.395 N 
HETATM   15  H   UNL     1      63.709   5.092   5.526  1.00  0.00     0.156 HD
HETATM   16  H   UNL     1      63.974   4.945   7.205  1.00  0.00     0.156 HD
ENDBRANCH   4  14
TORSDOF 2
ENDMDL
MODEL 8
REMARK VINA RESULT:      -4.5      1.993      5.065
REMARK  2 active torsions:
REMARK  status: ('A' for Active; 'I' for Inactive)
REMARK    1  A    between atoms: C_1  and  C_7 
REMARK    2  A    between atoms: C_4  and  N_8 
ROOT
HETATM    1  C   UNL     1      64.564   8.137   4.920  1.00  0.00     0.093 A 
HETATM    2  N   UNL     1      64.656   9.127   5.827  1.00  0.00    -0.258 N 
ATOM      3  HN  UNL     1      65.314   9.181   6.605  1.00  0.00     0.195 HD
HETATM    4  C   UNL     1      63.504   8.423   4.002  1.00  0.00     0.087 A 
HETATM    5  C   UNL     1      63.000   9.632   4.408  1.00  0.00     0.101 A 
HETATM    6  O   UNL     1      63.690  10.054   5.499  1.00  0.00    -0.240 OA
HETATM    7  C   UNL     1      61.911  10.510   3.944  1.00  0.00     0.081 C 
ENDROOT
BRANCH   1   8
HETATM    8  C   UNL     1      65.459   6.978   4.987  1.00  0.00    -0.005 A 
HETATM    9  C   UNL     1      65.508   6.195   6.151  1.00  0.00     0.014 A 
HETATM   10  C   UNL     1      66.350   5.081   6.228  1.00  0.00     0.001 A 
HETATM   11  C   UNL     1      67.152   4.739   5.144  1.00  0.00     0.000 A 
HETATM   12  C   UNL     1      67.124   5.514   3.986  1.00  0.00     0.001 A 
HETATM   13  C   UNL     1      66.288   6.632   3.911  1.00  0.00     0.014 A 
ENDBRANCH   1   8
BRANCH   4  14
HETATM   14  N   UNL     1      63.041   7.685   2.967  1.00  0.00    -0.395 N 
HETATM   15  H   UNL     1      63.228   6.719   2.929  1.00  0.00     0.156 HD
HETATM   16  H   UNL     1      62.519   8.114   2.251  1.00  0.00     0.156 HD
ENDBRANCH   4  14
TORSDOF 2
ENDMDL
MODEL 9
REMARK VINA RESULT:      -4.2      3.358      4.921
REMARK  2 active torsions:
REMARK  status: ('A' for Active; 'I' for Inactive)
REMARK    1  A    between atoms: C_1  and  C_7 
REMARK    2  A    between atoms: C_4  and  N_8 
ROOT
HETATM    1  C   UNL     1      61.208   8.539   2.365  1.00  0.00     0.093 A 
HETATM    2  N   UNL     1      61.350   8.897   1.076  1.00  0.00    -0.258 N 
ATOM      3  HN  UNL     1      61.993   9.597   0.706  1.00  0.00     0.195 HD
HETATM    4  C   UNL     1      60.190   7.539   2.477  1.00  0.00     0.087 A 
HETATM    5  C   UNL     1      59.763   7.323   1.192  1.00  0.00     0.101 A 
HETATM    6  O   UNL     1      60.458   8.134   0.354  1.00  0.00    -0.240 OA
HETATM    7  C   UNL     1      58.748   6.455   0.569  1.00  0.00     0.081 C 
ENDROOT
BRANCH   1   8
HETATM    8  C   UNL     1      62.019   9.171   3.409  1.00  0.00    -0.005 A 
HETATM    9  C   UNL     1      61.756  10.495   3.797  1.00  0.00     0.014 A 
HETATM   10  C   UNL     1      62.514  11.111   4.797  1.00  0.00     0.001 A 
HETATM   11  C   UNL     1      63.543  10.412   5.420  1.00  0.00     0.000 A 
HETATM   12  C   UNL     1      63.824   9.102   5.038  1.00  0.00     0.001 A 
HETATM   13  C   UNL     1      63.071   8.488   4.033  1.00  0.00     0.014 A 
ENDBRANCH   1   8
BRANCH   4  14
HETATM   14  N   UNL     1      59.699   6.932   3.582  1.00  0.00    -0.395 N 
HETATM   15  H   UNL     1      58.750   6.671   3.618  1.00  0.00     0.156 HD
HETATM   16  H   UNL     1      60.290   6.752   4.348  1.00  0.00     0.156 HD
ENDBRANCH   4  14
TORSDOF 2
ENDMDL
