MODEL 1
REMARK VINA RESULT:      -4.6      0.000      0.000
REMARK  3 active torsions:
REMARK  status: ('A' for Active; 'I' for Inactive)
REMARK    1  A    between atoms: C_1  and  C_7 
REMARK    2  A    between atoms: C_7  and  C_8 
REMARK    3  A    between atoms: C_8  and  O_10 
ROOT
HETATM    1  C   UNL     1      63.634   8.523   5.186  1.00  0.00     0.032 A 
HETATM    2  N   UNL     1      64.999   8.779   5.121  1.00  0.00    -0.356 N 
ATOM      3  HN  UNL     1      65.421   9.573   4.640  1.00  0.00     0.166 HD
HETATM    4  S   UNL     1      64.713   6.641   6.520  1.00  0.00    -0.080 SA
HETATM    5  C   UNL     1      63.294   7.407   5.937  1.00  0.00     0.004 A 
HETATM    6  C   UNL     1      65.668   7.850   5.769  1.00  0.00     0.047 A 
HETATM    7  C   UNL     1      61.957   6.827   6.240  1.00  0.00     0.058 C 
HETATM    8  C   UNL     1      67.151   7.798   5.882  1.00  0.00     0.076 C 
ENDROOT
BRANCH   1   9
HETATM    9  C   UNL     1      62.705   9.468   4.492  1.00  0.00     0.169 C 
BRANCH   9  10
HETATM   10  C   UNL     1      62.720  10.853   5.100  1.00  0.00     0.264 C 
HETATM   11  O   UNL     1      63.227  11.176   6.166  1.00  0.00    -0.265 OA
BRANCH  10  12
HETATM   12  O   UNL     1      62.107  11.733   4.250  1.00  0.00    -0.326 OA
HETATM   13  C   UNL     1      61.855  11.187   2.953  1.00  0.00     0.213 C 
ENDBRANCH  10  12
ENDBRANCH   9  10
ENDBRANCH   1   9
TORSDOF 3
ENDMDL
MODEL 2
REMARK VINA RESULT:      -4.4      2.939      4.526
REMARK  3 active torsions:
REMARK  status: ('A' for Active; 'I' for Inactive)
REMARK    1  A    between atoms: C_1  and  C_7 
REMARK    2  A    between atoms: C_7  and  C_8 
REMARK    3  A    between atoms: C_8  and  O_10 
ROOT
HETATM    1  C   UNL     1      62.511   9.445   3.320  1.00  0.00     0.032 A 
HETATM    2  N   UNL     1      62.779   8.093   3.139  1.00  0.00    -0.356 N 
ATOM      3  HN  UNL     1      63.063   7.451   3.879  1.00  0.00     0.166 HD
HETATM    4  S   UNL     1      62.095   9.026   0.843  1.00  0.00    -0.080 SA
HETATM    5  C   UNL     1      62.096  10.107   2.174  1.00  0.00     0.004 A 
HETATM    6  C   UNL     1      62.612   7.760   1.877  1.00  0.00     0.047 A 
HETATM    7  C   UNL     1      61.716  11.533   1.975  1.00  0.00     0.058 C 
HETATM    8  C   UNL     1      62.835   6.397   1.324  1.00  0.00     0.076 C 
ENDROOT
BRANCH   1   9
HETATM    9  C   UNL     1      62.662  10.017   4.695  1.00  0.00     0.169 C 
BRANCH   9  10
HETATM   10  C   UNL     1      63.414   9.096   5.630  1.00  0.00     0.264 C 
HETATM   11  O   UNL     1      62.928   8.238   6.356  1.00  0.00    -0.265 OA
BRANCH  10  12
HETATM   12  O   UNL     1      64.757   9.331   5.520  1.00  0.00    -0.326 OA
HETATM   13  C   UNL     1      65.546   8.139   5.547  1.00  0.00     0.213 C 
ENDBRANCH  10  12
ENDBRANCH   9  10
ENDBRANCH   1   9
TORSDOF 3
ENDMDL
MODEL 3
REMARK VINA RESULT:      -4.3      2.238      3.052
REMARK  3 active torsions:
REMARK  status: ('A' for Active; 'I' for Inactive)
REMARK    1  A    between atoms: C_1  and  C_7 
REMARK    2  A    between atoms: C_7  and  C_8 
REMARK    3  A    between atoms: C_8  and  O_10 
ROOT
HETATM    1  C   UNL     1      65.375   6.935   5.902  1.00  0.00     0.032 A 
HETATM    2  N   UNL     1      65.339   7.047   7.288  1.00  0.00    -0.356 N 
ATOM      3  HN  UNL     1      64.553   7.418   7.822  1.00  0.00     0.166 HD
HETATM    4  S   UNL     1      67.611   6.005   6.687  1.00  0.00    -0.080 SA
HETATM    5  C   UNL     1      66.533   6.358   5.402  1.00  0.00     0.004 A 
HETATM    6  C   UNL     1      66.464   6.608   7.810  1.00  0.00     0.047 A 
HETATM    7  C   UNL     1      66.929   6.067   3.997  1.00  0.00     0.058 C 
HETATM    8  C   UNL     1      66.777   6.603   9.264  1.00  0.00     0.076 C 
ENDROOT
BRANCH   1   9
HETATM    9  C   UNL     1      64.183   7.400   5.126  1.00  0.00     0.169 C 
BRANCH   9  10
HETATM   10  C   UNL     1      64.090   8.908   5.047  1.00  0.00     0.264 C 
HETATM   11  O   UNL     1      64.703   9.713   5.737  1.00  0.00    -0.265 OA
BRANCH  10  12
HETATM   12  O   UNL     1      63.233   9.262   4.041  1.00  0.00    -0.326 OA
HETATM   13  C   UNL     1      62.356  10.335   4.393  1.00  0.00     0.213 C 
ENDBRANCH  10  12
ENDBRANCH   9  10
ENDBRANCH   1   9
TORSDOF 3
ENDMDL
MODEL 4
REMARK VINA RESULT:      -4.2      3.006      4.594
REMARK  3 active torsions:
REMARK  status: ('A' for Active; 'I' for Inactive)
REMARK    1  A    between atoms: C_1  and  C_7 
REMARK    2  A    between atoms: C_7  and  C_8 
REMARK    3  A    between atoms: C_8  and  O_10 
ROOT
HETATM    1  C   UNL     1      64.295   8.091   4.692  1.00  0.00     0.032 A 
HETATM    2  N   UNL     1      64.133   9.260   5.427  1.00  0.00    -0.356 N 
ATOM      3  HN  UNL     1      64.694   9.521   6.238  1.00  0.00     0.166 HD
HETATM    4  S   UNL     1      62.394   9.328   3.534  1.00  0.00    -0.080 SA
HETATM    5  C   UNL     1      63.445   7.975   3.602  1.00  0.00     0.004 A 
HETATM    6  C   UNL     1      63.154   9.982   4.925  1.00  0.00     0.047 A 
HETATM    7  C   UNL     1      63.326   6.889   2.591  1.00  0.00     0.058 C 
HETATM    8  C   UNL     1      62.693  11.284   5.477  1.00  0.00     0.076 C 
ENDROOT
BRANCH   1   9
HETATM    9  C   UNL     1      65.358   7.129   5.122  1.00  0.00     0.169 C 
BRANCH   9  10
HETATM   10  C   UNL     1      66.510   7.810   5.827  1.00  0.00     0.264 C 
HETATM   11  O   UNL     1      67.477   8.340   5.297  1.00  0.00    -0.265 OA
BRANCH  10  12
HETATM   12  O   UNL     1      66.297   7.788   7.178  1.00  0.00    -0.326 OA
HETATM   13  C   UNL     1      65.808   6.533   7.656  1.00  0.00     0.213 C 
ENDBRANCH  10  12
ENDBRANCH   9  10
ENDBRANCH   1   9
TORSDOF 3
ENDMDL
MODEL 5
REMARK VINA RESULT:      -4.1      3.002      4.746
REMARK  3 active torsions:
REMARK  status: ('A' for Active; 'I' for Inactive)
REMARK    1  A    between atoms: C_1  and  C_7 
REMARK    2  A    between atoms: C_7  and  C_8 
REMARK    3  A    between atoms: C_8  and  O_10 
ROOT
HETATM    1  C   UNL     1      62.779   8.719   3.535  1.00  0.00     0.032 A 
HETATM    2  N   UNL     1      62.446  10.069   3.544  1.00  0.00    -0.356 N 
ATOM      3  HN  UNL     1      62.498  10.676   4.362  1.00  0.00     0.166 HD
HETATM    4  S   UNL     1      62.094   9.235   1.138  1.00  0.00    -0.080 SA
HETATM    5  C   UNL     1      62.672   8.109   2.293  1.00  0.00     0.004 A 
HETATM    6  C   UNL     1      62.055  10.450   2.347  1.00  0.00     0.047 A 
HETATM    7  C   UNL     1      62.946   6.703   1.890  1.00  0.00     0.058 C 
HETATM    8  C   UNL     1      61.603  11.824   2.002  1.00  0.00     0.076 C 
ENDROOT
BRANCH   1   9
HETATM    9  C   UNL     1      63.236   8.096   4.817  1.00  0.00     0.169 C 
BRANCH   9  10
HETATM   10  C   UNL     1      64.620   8.551   5.226  1.00  0.00     0.264 C 
HETATM   11  O   UNL     1      64.910   9.616   5.754  1.00  0.00    -0.265 OA
BRANCH  10  12
HETATM   12  O   UNL     1      65.525   7.562   4.955  1.00  0.00    -0.326 OA
HETATM   13  C   UNL     1      65.036   6.250   5.243  1.00  0.00     0.213 C 
ENDBRANCH  10  12
ENDBRANCH   9  10
ENDBRANCH   1   9
TORSDOF 3
ENDMDL
MODEL 6
REMARK VINA RESULT:      -4.0      3.043      4.283
REMARK  3 active torsions:
REMARK  status: ('A' for Active; 'I' for Inactive)
REMARK    1  A    between atoms: C_1  and  C_7 
REMARK    2  A    between atoms: C_7  and  C_8 
REMARK    3  A    between atoms: C_8  and  O_10 
ROOT
HETATM    1  C   UNL     1      61.182   8.333   3.633  1.00  0.00     0.032 A 
HETATM    2  N   UNL     1      59.830   8.481   3.347  1.00  0.00    -0.356 N 
ATOM      3  HN  UNL     1      59.426   9.261   2.828  1.00  0.00     0.166 HD
HETATM    4  S   UNL     1      60.075   6.273   4.641  1.00  0.00    -0.080 SA
HETATM    5  C   UNL     1      61.501   7.166   4.312  1.00  0.00     0.004 A 
HETATM    6  C   UNL     1      59.146   7.472   3.840  1.00  0.00     0.047 A 
HETATM    7  C   UNL     1      62.820   6.658   4.778  1.00  0.00     0.058 C 
HETATM    8  C   UNL     1      57.669   7.320   3.740  1.00  0.00     0.076 C 
ENDROOT
BRANCH   1   9
HETATM    9  C   UNL     1      62.124   9.396   3.162  1.00  0.00     0.169 C 
BRANCH   9  10
HETATM   10  C   UNL     1      62.220  10.559   4.125  1.00  0.00     0.264 C 
HETATM   11  O   UNL     1      62.697  10.534   5.252  1.00  0.00    -0.265 OA
BRANCH  10  12
HETATM   12  O   UNL     1      61.724  11.687   3.531  1.00  0.00    -0.326 OA
HETATM   13  C   UNL     1      61.797  11.656   2.103  1.00  0.00     0.213 C 
ENDBRANCH  10  12
ENDBRANCH   9  10
ENDBRANCH   1   9
TORSDOF 3
ENDMDL
MODEL 7
REMARK VINA RESULT:      -3.8      3.348      4.826
REMARK  3 active torsions:
REMARK  status: ('A' for Active; 'I' for Inactive)
REMARK    1  A    between atoms: C_1  and  C_7 
REMARK    2  A    between atoms: C_7  and  C_8 
REMARK    3  A    between atoms: C_8  and  O_10 
ROOT
HETATM    1  C   UNL     1      67.418   6.252   6.488  1.00  0.00     0.032 A 
HETATM    2  N   UNL     1      67.649   5.235   5.569  1.00  0.00    -0.356 N 
ATOM      3  HN  UNL     1      67.730   5.368   4.561  1.00  0.00     0.166 HD
HETATM    4  S   UNL     1      67.610   4.137   7.893  1.00  0.00    -0.080 SA
HETATM    5  C   UNL     1      67.393   5.836   7.811  1.00  0.00     0.004 A 
HETATM    6  C   UNL     1      67.750   4.078   6.185  1.00  0.00     0.047 A 
HETATM    7  C   UNL     1      67.185   6.621   9.059  1.00  0.00     0.058 C 
HETATM    8  C   UNL     1      67.974   2.773   5.506  1.00  0.00     0.076 C 
ENDROOT
BRANCH   1   9
HETATM    9  C   UNL     1      67.260   7.648   5.971  1.00  0.00     0.169 C 
BRANCH   9  10
HETATM   10  C   UNL     1      65.810   8.056   5.826  1.00  0.00     0.264 C 
HETATM   11  O   UNL     1      65.363   9.193   5.891  1.00  0.00    -0.265 OA
BRANCH  10  12
HETATM   12  O   UNL     1      65.049   6.951   5.560  1.00  0.00    -0.326 OA
HETATM   13  C   UNL     1      63.814   6.925   6.280  1.00  0.00     0.213 C 
ENDBRANCH  10  12
ENDBRANCH   9  10
ENDBRANCH   1   9
TORSDOF 3
ENDMDL
MODEL 8
REMARK VINA RESULT:      -3.7      3.530      4.905
REMARK  3 active torsions:
REMARK  status: ('A' for Active; 'I' for Inactive)
REMARK    1  A    between atoms: C_1  and  C_7 
REMARK    2  A    between atoms: C_7  and  C_8 
REMARK    3  A    between atoms: C_8  and  O_10 
ROOT
HETATM    1  C   UNL     1      61.440   8.334   2.883  1.00  0.00     0.032 A 
HETATM    2  N   UNL     1      60.289   8.534   3.638  1.00  0.00    -0.356 N 
ATOM      3  HN  UNL     1      60.170   9.269   4.334  1.00  0.00     0.166 HD
HETATM    4  S   UNL     1      59.823   6.532   2.093  1.00  0.00    -0.080 SA
HETATM    5  C   UNL     1      61.352   7.297   1.965  1.00  0.00     0.004 A 
HETATM    6  C   UNL     1      59.377   7.639   3.325  1.00  0.00     0.047 A 
HETATM    7  C   UNL     1      62.357   6.794   0.990  1.00  0.00     0.058 C 
HETATM    8  C   UNL     1      58.033   7.544   3.955  1.00  0.00     0.076 C 
ENDROOT
BRANCH   1   9
HETATM    9  C   UNL     1      62.601   9.251   3.110  1.00  0.00     0.169 C 
BRANCH   9  10
HETATM   10  C   UNL     1      62.403  10.159   4.303  1.00  0.00     0.264 C 
HETATM   11  O   UNL     1      61.822  11.236   4.310  1.00  0.00    -0.265 OA
BRANCH  10  12
HETATM   12  O   UNL     1      62.941   9.575   5.417  1.00  0.00    -0.326 OA
HETATM   13  C   UNL     1      64.225   8.990   5.188  1.00  0.00     0.213 C 
ENDBRANCH  10  12
ENDBRANCH   9  10
ENDBRANCH   1   9
TORSDOF 3
ENDMDL
MODEL 9
REMARK VINA RESULT:      -3.5      3.708      4.671
REMARK  3 active torsions:
REMARK  status: ('A' for Active; 'I' for Inactive)
REMARK    1  A    between atoms: C_1  and  C_7 
REMARK    2  A    between atoms: C_7  and  C_8 
REMARK    3  A    between atoms: C_8  and  O_10 
ROOT
HETATM    1  C   UNL     1      60.621   8.056   2.839  1.00  0.00     0.032 A 
HETATM    2  N   UNL     1      60.813   7.537   4.115  1.00  0.00    -0.356 N 
ATOM      3  HN  UNL     1      61.550   7.828   4.757  1.00  0.00     0.166 HD
HETATM    4  S   UNL     1      58.759   6.343   3.131  1.00  0.00    -0.080 SA
HETATM    5  C   UNL     1      59.523   7.537   2.167  1.00  0.00     0.004 A 
HETATM    6  C   UNL     1      59.908   6.618   4.374  1.00  0.00     0.047 A 
HETATM    7  C   UNL     1      58.998   7.845   0.809  1.00  0.00     0.058 C 
HETATM    8  C   UNL     1      59.831   5.838   5.639  1.00  0.00     0.076 C 
ENDROOT
BRANCH   1   9
HETATM    9  C   UNL     1      61.567   9.110   2.357  1.00  0.00     0.169 C 
BRANCH   9  10
HETATM   10  C   UNL     1      62.140   9.940   3.484  1.00  0.00     0.264 C 
HETATM   11  O   UNL     1      62.973   9.579   4.304  1.00  0.00    -0.265 OA
BRANCH  10  12
HETATM   12  O   UNL     1      61.615  11.203   3.434  1.00  0.00    -0.326 OA
HETATM   13  C   UNL     1      61.761  11.829   2.157  1.00  0.00     0.213 C 
ENDBRANCH  10  12
ENDBRANCH   9  10
ENDBRANCH   1   9
TORSDOF 3
ENDMDL
