MODEL 1
REMARK VINA RESULT:      -5.5      0.000      0.000
REMARK  2 active torsions:
REMARK  status: ('A' for Active; 'I' for Inactive)
REMARK    1  A    between atoms: S_1  and  C_2 
REMARK    2  A    between atoms: S_1  and  N_10 
ROOT
HETATM    1  C   UNL     1      62.868   9.450   3.913  1.00  0.00     0.084 A 
HETATM    2  C   UNL     1      62.947   8.371   3.002  1.00  0.00    -0.017 A 
HETATM    3  C   UNL     1      62.426   8.576   1.704  1.00  0.00     0.044 A 
HETATM    4  C   UNL     1      62.292  10.672   3.532  1.00  0.00     0.067 A 
HETATM    5  C   UNL     1      61.854   9.792   1.330  1.00  0.00     0.066 A 
HETATM    6  C   UNL     1      61.793  10.827   2.248  1.00  0.00     0.119 A 
HETATM    7 CL   UNL     1      62.465   7.329   0.503  1.00  0.00    -0.084 Cl
HETATM    8  F   UNL     1      61.243  11.994   1.890  1.00  0.00    -0.206 F 
HETATM    9  C   UNL     1      63.541   7.028   3.343  1.00  0.00     0.052 C 
ENDROOT
BRANCH   1  10
HETATM   10  S   UNL     1      63.464   9.339   5.584  1.00  0.00     0.240 S 
HETATM   11  O   UNL     1      64.907   9.310   5.563  1.00  0.00    -0.206 OA
HETATM   12  O   UNL     1      62.686   8.356   6.300  1.00  0.00    -0.206 OA
BRANCH  10  13
HETATM   13  N   UNL     1      63.005  10.812   6.244  1.00  0.00    -0.225 NA
HETATM   14  H   UNL     1      62.073  11.059   5.910  1.00  0.00     0.136 HD
HETATM   15  H   UNL     1      63.670  11.533   5.963  1.00  0.00     0.136 HD
ENDBRANCH  10  13
ENDBRANCH   1  10
TORSDOF 2
ENDMDL
MODEL 2
REMARK VINA RESULT:      -5.3      1.879      2.076
REMARK  2 active torsions:
REMARK  status: ('A' for Active; 'I' for Inactive)
REMARK    1  A    between atoms: S_1  and  C_2 
REMARK    2  A    between atoms: S_1  and  N_10 
ROOT
HETATM    1  C   UNL     1      63.633   8.886   4.559  1.00  0.00     0.084 A 
HETATM    2  C   UNL     1      63.066   8.473   3.331  1.00  0.00    -0.017 A 
HETATM    3  C   UNL     1      62.174   9.366   2.693  1.00  0.00     0.044 A 
HETATM    4  C   UNL     1      63.313  10.135   5.115  1.00  0.00     0.067 A 
HETATM    5  C   UNL     1      61.860  10.606   3.250  1.00  0.00     0.066 A 
HETATM    6  C   UNL     1      62.433  10.977   4.455  1.00  0.00     0.119 A 
HETATM    7 CL   UNL     1      61.418   8.972   1.186  1.00  0.00    -0.084 Cl
HETATM    8  F   UNL     1      62.130  12.166   4.990  1.00  0.00    -0.206 F 
HETATM    9  C   UNL     1      63.353   7.145   2.679  1.00  0.00     0.052 C 
ENDROOT
BRANCH   1  10
HETATM   10  S   UNL     1      64.756   7.867   5.486  1.00  0.00     0.240 S 
HETATM   11  O   UNL     1      65.560   7.101   4.564  1.00  0.00    -0.206 OA
HETATM   12  O   UNL     1      64.044   7.249   6.580  1.00  0.00    -0.206 OA
BRANCH  10  13
HETATM   13  N   UNL     1      65.768   8.991   6.213  1.00  0.00    -0.225 NA
HETATM   14  H   UNL     1      65.281   9.434   6.993  1.00  0.00     0.136 HD
HETATM   15  H   UNL     1      66.035   9.701   5.531  1.00  0.00     0.136 HD
ENDBRANCH  10  13
ENDBRANCH   1  10
TORSDOF 2
ENDMDL
MODEL 3
REMARK VINA RESULT:      -5.1      2.536      3.236
REMARK  2 active torsions:
REMARK  status: ('A' for Active; 'I' for Inactive)
REMARK    1  A    between atoms: S_1  and  C_2 
REMARK    2  A    between atoms: S_1  and  N_10 
ROOT
HETATM    1  C   UNL     1      63.057   8.428   4.174  1.00  0.00     0.084 A 
HETATM    2  C   UNL     1      62.652   9.769   3.980  1.00  0.00    -0.017 A 
HETATM    3  C   UNL     1      62.176  10.126   2.698  1.00  0.00     0.044 A 
HETATM    4  C   UNL     1      62.985   7.497   3.126  1.00  0.00     0.067 A 
HETATM    5  C   UNL     1      62.106   9.197   1.660  1.00  0.00     0.066 A 
HETATM    6  C   UNL     1      62.512   7.893   1.885  1.00  0.00     0.119 A 
HETATM    7 CL   UNL     1      61.652  11.738   2.341  1.00  0.00    -0.084 Cl
HETATM    8  F   UNL     1      62.447   7.001   0.888  1.00  0.00    -0.206 F 
HETATM    9  C   UNL     1      62.711  10.826   5.053  1.00  0.00     0.052 C 
ENDROOT
BRANCH   1  10
HETATM   10  S   UNL     1      63.694   7.833   5.723  1.00  0.00     0.240 S 
HETATM   11  O   UNL     1      62.633   7.855   6.702  1.00  0.00    -0.206 OA
HETATM   12  O   UNL     1      64.981   8.439   5.971  1.00  0.00    -0.206 OA
BRANCH  10  13
HETATM   13  N   UNL     1      64.034   6.223   5.395  1.00  0.00    -0.225 NA
HETATM   14  H   UNL     1      63.333   5.850   4.755  1.00  0.00     0.136 HD
HETATM   15  H   UNL     1      64.022   5.689   6.263  1.00  0.00     0.136 HD
ENDBRANCH  10  13
ENDBRANCH   1  10
TORSDOF 2
ENDMDL
MODEL 4
REMARK VINA RESULT:      -5.1      1.610      1.751
REMARK  2 active torsions:
REMARK  status: ('A' for Active; 'I' for Inactive)
REMARK    1  A    between atoms: S_1  and  C_2 
REMARK    2  A    between atoms: S_1  and  N_10 
ROOT
HETATM    1  C   UNL     1      62.987   8.710   4.475  1.00  0.00     0.084 A 
HETATM    2  C   UNL     1      62.795   8.318   3.130  1.00  0.00    -0.017 A 
HETATM    3  C   UNL     1      62.296   9.291   2.234  1.00  0.00     0.044 A 
HETATM    4  C   UNL     1      62.688  10.017   4.894  1.00  0.00     0.067 A 
HETATM    5  C   UNL     1      62.001  10.588   2.655  1.00  0.00     0.066 A 
HETATM    6  C   UNL     1      62.200  10.936   3.980  1.00  0.00     0.119 A 
HETATM    7 CL   UNL     1      62.019   8.929   0.563  1.00  0.00    -0.084 Cl
HETATM    8  F   UNL     1      61.915  12.181   4.384  1.00  0.00    -0.206 F 
HETATM    9  C   UNL     1      63.083   6.933   2.612  1.00  0.00     0.052 C 
ENDROOT
BRANCH   1  10
HETATM   10  S   UNL     1      63.591   7.596   5.722  1.00  0.00     0.240 S 
HETATM   11  O   UNL     1      64.934   7.985   6.083  1.00  0.00    -0.206 OA
HETATM   12  O   UNL     1      63.258   6.241   5.348  1.00  0.00    -0.206 OA
BRANCH  10  13
HETATM   13  N   UNL     1      62.605   7.933   7.036  1.00  0.00    -0.225 NA
HETATM   14  H   UNL     1      62.911   7.387   7.841  1.00  0.00     0.136 HD
HETATM   15  H   UNL     1      61.640   7.693   6.809  1.00  0.00     0.136 HD
ENDBRANCH  10  13
ENDBRANCH   1  10
TORSDOF 2
ENDMDL
MODEL 5
REMARK VINA RESULT:      -4.7      3.485      3.872
REMARK  2 active torsions:
REMARK  status: ('A' for Active; 'I' for Inactive)
REMARK    1  A    between atoms: S_1  and  C_2 
REMARK    2  A    between atoms: S_1  and  N_10 
ROOT
HETATM    1  C   UNL     1      62.178   9.083   2.687  1.00  0.00     0.084 A 
HETATM    2  C   UNL     1      62.516   9.355   4.033  1.00  0.00    -0.017 A 
HETATM    3  C   UNL     1      62.448  10.700   4.461  1.00  0.00     0.044 A 
HETATM    4  C   UNL     1      61.791  10.117   1.819  1.00  0.00     0.067 A 
HETATM    5  C   UNL     1      62.063  11.724   3.595  1.00  0.00     0.066 A 
HETATM    6  C   UNL     1      61.740  11.422   2.284  1.00  0.00     0.119 A 
HETATM    7 CL   UNL     1      62.839  11.157   6.085  1.00  0.00    -0.084 Cl
HETATM    8  F   UNL     1      61.372  12.404   1.452  1.00  0.00    -0.206 F 
HETATM    9  C   UNL     1      62.950   8.300   5.017  1.00  0.00     0.052 C 
ENDROOT
BRANCH   1  10
HETATM   10  S   UNL     1      62.232   7.446   1.997  1.00  0.00     0.240 S 
HETATM   11  O   UNL     1      61.093   6.700   2.476  1.00  0.00    -0.206 OA
HETATM   12  O   UNL     1      63.580   6.935   2.092  1.00  0.00    -0.206 OA
BRANCH  10  13
HETATM   13  N   UNL     1      61.993   7.721   0.359  1.00  0.00    -0.225 NA
HETATM   14  H   UNL     1      61.053   7.425   0.098  1.00  0.00     0.136 HD
HETATM   15  H   UNL     1      62.679   7.192  -0.179  1.00  0.00     0.136 HD
ENDBRANCH  10  13
ENDBRANCH   1  10
TORSDOF 2
ENDMDL
MODEL 6
REMARK VINA RESULT:      -4.5      3.611      4.002
REMARK  2 active torsions:
REMARK  status: ('A' for Active; 'I' for Inactive)
REMARK    1  A    between atoms: S_1  and  C_2 
REMARK    2  A    between atoms: S_1  and  N_10 
ROOT
HETATM    1  C   UNL     1      62.394   8.742   3.007  1.00  0.00     0.084 A 
HETATM    2  C   UNL     1      63.478   8.133   3.681  1.00  0.00    -0.017 A 
HETATM    3  C   UNL     1      64.048   8.837   4.766  1.00  0.00     0.044 A 
HETATM    4  C   UNL     1      61.912   9.998   3.409  1.00  0.00     0.067 A 
HETATM    5  C   UNL     1      63.565  10.085   5.161  1.00  0.00     0.066 A 
HETATM    6  C   UNL     1      62.503  10.652   4.478  1.00  0.00     0.119 A 
HETATM    7 CL   UNL     1      65.379   8.194   5.667  1.00  0.00    -0.084 Cl
HETATM    8  F   UNL     1      62.040  11.850   4.856  1.00  0.00    -0.206 F 
HETATM    9  C   UNL     1      64.055   6.794   3.300  1.00  0.00     0.052 C 
ENDROOT
BRANCH   1  10
HETATM   10  S   UNL     1      61.585   7.989   1.615  1.00  0.00     0.240 S 
HETATM   11  O   UNL     1      61.081   6.696   2.013  1.00  0.00    -0.206 OA
HETATM   12  O   UNL     1      62.403   8.165   0.439  1.00  0.00    -0.206 OA
BRANCH  10  13
HETATM   13  N   UNL     1      60.258   8.985   1.368  1.00  0.00    -0.225 NA
HETATM   14  H   UNL     1      59.718   8.643   0.573  1.00  0.00     0.136 HD
HETATM   15  H   UNL     1      60.576   9.936   1.180  1.00  0.00     0.136 HD
ENDBRANCH  10  13
ENDBRANCH   1  10
TORSDOF 2
ENDMDL
MODEL 7
REMARK VINA RESULT:      -4.5      3.253      3.692
REMARK  2 active torsions:
REMARK  status: ('A' for Active; 'I' for Inactive)
REMARK    1  A    between atoms: S_1  and  C_2 
REMARK    2  A    between atoms: S_1  and  N_10 
ROOT
HETATM    1  C   UNL     1      62.450   8.482   3.359  1.00  0.00     0.084 A 
HETATM    2  C   UNL     1      62.076   9.450   2.398  1.00  0.00    -0.017 A 
HETATM    3  C   UNL     1      61.988  10.793   2.828  1.00  0.00     0.044 A 
HETATM    4  C   UNL     1      62.719   8.852   4.686  1.00  0.00     0.067 A 
HETATM    5  C   UNL     1      62.256  11.156   4.148  1.00  0.00     0.066 A 
HETATM    6  C   UNL     1      62.618  10.182   5.063  1.00  0.00     0.119 A 
HETATM    7 CL   UNL     1      61.539  12.066   1.744  1.00  0.00    -0.084 Cl
HETATM    8  F   UNL     1      62.874  10.530   6.330  1.00  0.00    -0.206 F 
HETATM    9  C   UNL     1      61.763   9.125   0.960  1.00  0.00     0.052 C 
ENDROOT
BRANCH   1  10
HETATM   10  S   UNL     1      62.587   6.752   2.974  1.00  0.00     0.240 S 
HETATM   11  O   UNL     1      63.727   6.556   2.110  1.00  0.00    -0.206 OA
HETATM   12  O   UNL     1      61.279   6.233   2.649  1.00  0.00    -0.206 OA
BRANCH  10  13
HETATM   13  N   UNL     1      62.964   6.066   4.459  1.00  0.00    -0.225 NA
HETATM   14  H   UNL     1      62.135   5.618   4.847  1.00  0.00     0.136 HD
HETATM   15  H   UNL     1      63.289   6.792   5.096  1.00  0.00     0.136 HD
ENDBRANCH  10  13
ENDBRANCH   1  10
TORSDOF 2
ENDMDL
MODEL 8
REMARK VINA RESULT:      -4.3      3.253      3.890
REMARK  2 active torsions:
REMARK  status: ('A' for Active; 'I' for Inactive)
REMARK    1  A    between atoms: S_1  and  C_2 
REMARK    2  A    between atoms: S_1  and  N_10 
ROOT
HETATM    1  C   UNL     1      63.240   8.950   3.879  1.00  0.00     0.084 A 
HETATM    2  C   UNL     1      63.386   7.785   3.091  1.00  0.00    -0.017 A 
HETATM    3  C   UNL     1      64.419   6.888   3.443  1.00  0.00     0.044 A 
HETATM    4  C   UNL     1      64.094   9.196   4.966  1.00  0.00     0.067 A 
HETATM    5  C   UNL     1      65.266   7.136   4.524  1.00  0.00     0.066 A 
HETATM    6  C   UNL     1      65.094   8.287   5.273  1.00  0.00     0.119 A 
HETATM    7 CL   UNL     1      64.697   5.428   2.553  1.00  0.00    -0.084 Cl
HETATM    8  F   UNL     1      65.907   8.526   6.309  1.00  0.00    -0.206 F 
HETATM    9  C   UNL     1      62.515   7.461   1.905  1.00  0.00     0.052 C 
ENDROOT
BRANCH   1  10
HETATM   10  S   UNL     1      61.999  10.180   3.550  1.00  0.00     0.240 S 
HETATM   11  O   UNL     1      62.047  10.528   2.150  1.00  0.00    -0.206 OA
HETATM   12  O   UNL     1      62.035  11.181   4.591  1.00  0.00    -0.206 OA
BRANCH  10  13
HETATM   13  N   UNL     1      60.566   9.346   3.807  1.00  0.00    -0.225 NA
HETATM   14  H   UNL     1      59.938   9.497   3.018  1.00  0.00     0.136 HD
HETATM   15  H   UNL     1      60.125   9.681   4.663  1.00  0.00     0.136 HD
ENDBRANCH  10  13
ENDBRANCH   1  10
TORSDOF 2
ENDMDL
MODEL 9
REMARK VINA RESULT:      -4.3      1.621      2.005
REMARK  2 active torsions:
REMARK  status: ('A' for Active; 'I' for Inactive)
REMARK    1  A    between atoms: S_1  and  C_2 
REMARK    2  A    between atoms: S_1  and  N_10 
ROOT
HETATM    1  C   UNL     1      63.270   8.527   3.898  1.00  0.00     0.084 A 
HETATM    2  C   UNL     1      63.778   7.316   3.375  1.00  0.00    -0.017 A 
HETATM    3  C   UNL     1      63.332   6.924   2.092  1.00  0.00     0.044 A 
HETATM    4  C   UNL     1      62.357   9.301   3.165  1.00  0.00     0.067 A 
HETATM    5  C   UNL     1      62.424   7.696   1.367  1.00  0.00     0.066 A 
HETATM    6  C   UNL     1      61.946   8.876   1.912  1.00  0.00     0.119 A 
HETATM    7 CL   UNL     1      63.883   5.461   1.347  1.00  0.00    -0.084 Cl
HETATM    8  F   UNL     1      61.074   9.616   1.217  1.00  0.00    -0.206 F 
HETATM    9  C   UNL     1      64.752   6.429   4.107  1.00  0.00     0.052 C 
ENDROOT
BRANCH   1  10
HETATM   10  S   UNL     1      63.724   9.143   5.503  1.00  0.00     0.240 S 
HETATM   11  O   UNL     1      62.987  10.357   5.762  1.00  0.00    -0.206 OA
HETATM   12  O   UNL     1      65.159   9.069   5.651  1.00  0.00    -0.206 OA
BRANCH  10  13
HETATM   13  N   UNL     1      63.124   7.967   6.539  1.00  0.00    -0.225 NA
HETATM   14  H   UNL     1      62.592   7.281   6.004  1.00  0.00     0.136 HD
HETATM   15  H   UNL     1      62.518   8.402   7.233  1.00  0.00     0.136 HD
ENDBRANCH  10  13
ENDBRANCH   1  10
TORSDOF 2
ENDMDL
