MODEL 1
REMARK VINA RESULT:      -5.5      0.000      0.000
REMARK  3 active torsions:
REMARK  status: ('A' for Active; 'I' for Inactive)
REMARK    1  A    between atoms: C_1  and  O_6 
REMARK    2  A    between atoms: C_5  and  O_10 
REMARK    3  A    between atoms: O_6  and  C_8 
ROOT
HETATM    1  C   UNL     1      63.225   9.138   4.375  1.00  0.00     0.091 A 
HETATM    2  C   UNL     1      62.884   8.599   3.103  1.00  0.00    -0.019 A 
HETATM    3  C   UNL     1      62.144   9.391   2.185  1.00  0.00    -0.020 A 
HETATM    4  C   UNL     1      62.827  10.427   4.755  1.00  0.00    -0.025 A 
HETATM    5  C   UNL     1      61.803  10.696   2.563  1.00  0.00     0.072 A 
HETATM    6  C   UNL     1      62.148  11.208   3.809  1.00  0.00     0.046 A 
HETATM    7  C   UNL     1      63.286   7.192   2.731  1.00  0.00     0.052 C 
HETATM    8  C   UNL     1      61.693   8.857   0.849  1.00  0.00     0.052 C 
HETATM    9  C   UNL     1      63.073  11.048   6.099  1.00  0.00     0.051 C 
ENDROOT
BRANCH   1  10
HETATM   10  O   UNL     1      63.864   8.230   5.273  1.00  0.00    -0.278 OA
BRANCH  10  11
HETATM   11  C   UNL     1      65.215   8.189   5.627  1.00  0.00     0.260 C 
HETATM   12  O   UNL     1      65.850   9.049   6.221  1.00  0.00    -0.265 OA
HETATM   13  C   UNL     1      65.826   6.926   5.083  1.00  0.00     0.126 C 
ENDBRANCH  10  11
ENDBRANCH   1  10
BRANCH   5  14
HETATM   14  O   UNL     1      61.095  11.548   1.759  1.00  0.00    -0.360 OA
HETATM   15  H   UNL     1      60.286  11.912   2.060  1.00  0.00     0.217 HD
ENDBRANCH   5  14
TORSDOF 3
ENDMDL
MODEL 2
REMARK VINA RESULT:      -5.4      2.021      2.958
REMARK  3 active torsions:
REMARK  status: ('A' for Active; 'I' for Inactive)
REMARK    1  A    between atoms: C_1  and  O_6 
REMARK    2  A    between atoms: C_5  and  O_10 
REMARK    3  A    between atoms: O_6  and  C_8 
ROOT
HETATM    1  C   UNL     1      62.652   8.330   3.307  1.00  0.00     0.091 A 
HETATM    2  C   UNL     1      62.284   9.348   2.384  1.00  0.00    -0.019 A 
HETATM    3  C   UNL     1      62.082  10.674   2.850  1.00  0.00    -0.020 A 
HETATM    4  C   UNL     1      62.799   8.600   4.674  1.00  0.00    -0.025 A 
HETATM    5  C   UNL     1      62.287  10.934   4.211  1.00  0.00     0.072 A 
HETATM    6  C   UNL     1      62.651   9.928   5.099  1.00  0.00     0.046 A 
HETATM    7  C   UNL     1      62.089   9.026   0.922  1.00  0.00     0.052 C 
HETATM    8  C   UNL     1      61.626  11.784   1.937  1.00  0.00     0.052 C 
HETATM    9  C   UNL     1      63.108   7.579   5.730  1.00  0.00     0.051 C 
ENDROOT
BRANCH   1  10
HETATM   10  O   UNL     1      62.716   7.009   2.769  1.00  0.00    -0.278 OA
BRANCH  10  11
HETATM   11  C   UNL     1      63.858   6.285   2.417  1.00  0.00     0.260 C 
HETATM   12  O   UNL     1      64.912   6.221   3.033  1.00  0.00    -0.265 OA
HETATM   13  C   UNL     1      63.634   5.635   1.079  1.00  0.00     0.126 C 
ENDBRANCH  10  11
ENDBRANCH   1  10
BRANCH   5  14
HETATM   14  O   UNL     1      62.124  12.173   4.770  1.00  0.00    -0.360 OA
HETATM   15  H   UNL     1      61.753  12.870   4.266  1.00  0.00     0.217 HD
ENDBRANCH   5  14
TORSDOF 3
ENDMDL
MODEL 3
REMARK VINA RESULT:      -5.1      1.186      2.789
REMARK  3 active torsions:
REMARK  status: ('A' for Active; 'I' for Inactive)
REMARK    1  A    between atoms: C_1  and  O_6 
REMARK    2  A    between atoms: C_5  and  O_10 
REMARK    3  A    between atoms: O_6  and  C_8 
ROOT
HETATM    1  C   UNL     1      63.443   8.302   4.452  1.00  0.00     0.091 A 
HETATM    2  C   UNL     1      62.886   9.595   4.249  1.00  0.00    -0.019 A 
HETATM    3  C   UNL     1      62.294   9.913   2.999  1.00  0.00    -0.020 A 
HETATM    4  C   UNL     1      63.443   7.337   3.435  1.00  0.00    -0.025 A 
HETATM    5  C   UNL     1      62.255   8.918   2.014  1.00  0.00     0.072 A 
HETATM    6  C   UNL     1      62.801   7.657   2.229  1.00  0.00     0.046 A 
HETATM    7  C   UNL     1      62.936  10.633   5.345  1.00  0.00     0.052 C 
HETATM    8  C   UNL     1      61.747  11.285   2.697  1.00  0.00     0.052 C 
HETATM    9  C   UNL     1      64.074   5.979   3.530  1.00  0.00     0.051 C 
ENDROOT
BRANCH   1  10
HETATM   10  O   UNL     1      64.121   8.114   5.694  1.00  0.00    -0.278 OA
BRANCH  10  11
HETATM   11  C   UNL     1      65.496   7.990   5.906  1.00  0.00     0.260 C 
HETATM   12  O   UNL     1      66.392   8.565   5.304  1.00  0.00    -0.265 OA
HETATM   13  C   UNL     1      65.738   6.946   6.963  1.00  0.00     0.126 C 
ENDBRANCH  10  11
ENDBRANCH   1  10
BRANCH   5  14
HETATM   14  O   UNL     1      61.708   9.111   0.774  1.00  0.00    -0.360 OA
HETATM   15  H   UNL     1      60.798   9.315   0.690  1.00  0.00     0.217 HD
ENDBRANCH   5  14
TORSDOF 3
ENDMDL
MODEL 4
REMARK VINA RESULT:      -4.7      1.757      4.544
REMARK  3 active torsions:
REMARK  status: ('A' for Active; 'I' for Inactive)
REMARK    1  A    between atoms: C_1  and  O_6 
REMARK    2  A    between atoms: C_5  and  O_10 
REMARK    3  A    between atoms: O_6  and  C_8 
ROOT
HETATM    1  C   UNL     1      62.761   8.478   3.136  1.00  0.00     0.091 A 
HETATM    2  C   UNL     1      63.716   7.427   3.228  1.00  0.00    -0.019 A 
HETATM    3  C   UNL     1      64.717   7.480   4.233  1.00  0.00    -0.020 A 
HETATM    4  C   UNL     1      62.798   9.580   4.001  1.00  0.00    -0.025 A 
HETATM    5  C   UNL     1      64.705   8.563   5.123  1.00  0.00     0.072 A 
HETATM    6  C   UNL     1      63.761   9.579   5.021  1.00  0.00     0.046 A 
HETATM    7  C   UNL     1      63.683   6.271   2.258  1.00  0.00     0.052 C 
HETATM    8  C   UNL     1      65.799   6.435   4.343  1.00  0.00     0.052 C 
HETATM    9  C   UNL     1      61.884  10.768   3.930  1.00  0.00     0.051 C 
ENDROOT
BRANCH   1  10
HETATM   10  O   UNL     1      61.869   8.399   2.024  1.00  0.00    -0.278 OA
BRANCH  10  11
HETATM   11  C   UNL     1      60.523   8.024   2.035  1.00  0.00     0.260 C 
HETATM   12  O   UNL     1      59.869   7.644   2.995  1.00  0.00    -0.265 OA
HETATM   13  C   UNL     1      59.989   8.073   0.629  1.00  0.00     0.126 C 
ENDBRANCH  10  11
ENDBRANCH   1  10
BRANCH   5  14
HETATM   14  O   UNL     1      65.619   8.716   6.130  1.00  0.00    -0.360 OA
HETATM   15  H   UNL     1      66.386   9.235   5.992  1.00  0.00     0.217 HD
ENDBRANCH   5  14
TORSDOF 3
ENDMDL
MODEL 5
REMARK VINA RESULT:      -4.5      2.001      5.048
REMARK  3 active torsions:
REMARK  status: ('A' for Active; 'I' for Inactive)
REMARK    1  A    between atoms: C_1  and  O_6 
REMARK    2  A    between atoms: C_5  and  O_10 
REMARK    3  A    between atoms: O_6  and  C_8 
ROOT
HETATM    1  C   UNL     1      62.828   8.187   2.669  1.00  0.00     0.091 A 
HETATM    2  C   UNL     1      62.626   9.358   3.450  1.00  0.00    -0.019 A 
HETATM    3  C   UNL     1      63.361   9.531   4.653  1.00  0.00    -0.020 A 
HETATM    4  C   UNL     1      63.720   7.184   3.070  1.00  0.00    -0.025 A 
HETATM    5  C   UNL     1      64.288   8.543   5.009  1.00  0.00     0.072 A 
HETATM    6  C   UNL     1      64.475   7.405   4.231  1.00  0.00     0.046 A 
HETATM    7  C   UNL     1      61.628  10.406   3.021  1.00  0.00     0.052 C 
HETATM    8  C   UNL     1      63.146  10.716   5.560  1.00  0.00     0.052 C 
HETATM    9  C   UNL     1      63.940   5.884   2.354  1.00  0.00     0.051 C 
ENDROOT
BRANCH   1  10
HETATM   10  O   UNL     1      61.961   8.045   1.543  1.00  0.00    -0.278 OA
BRANCH  10  11
HETATM   11  C   UNL     1      60.730   7.385   1.492  1.00  0.00     0.260 C 
HETATM   12  O   UNL     1      60.418   6.355   2.072  1.00  0.00    -0.265 OA
HETATM   13  C   UNL     1      59.830   8.101   0.521  1.00  0.00     0.126 C 
ENDBRANCH  10  11
ENDBRANCH   1  10
BRANCH   5  14
HETATM   14  O   UNL     1      65.052   8.605   6.142  1.00  0.00    -0.360 OA
HETATM   15  H   UNL     1      64.781   9.141   6.861  1.00  0.00     0.217 HD
ENDBRANCH   5  14
TORSDOF 3
ENDMDL
MODEL 6
REMARK VINA RESULT:      -4.1      2.143      4.009
REMARK  3 active torsions:
REMARK  status: ('A' for Active; 'I' for Inactive)
REMARK    1  A    between atoms: C_1  and  O_6 
REMARK    2  A    between atoms: C_5  and  O_10 
REMARK    3  A    between atoms: O_6  and  C_8 
ROOT
HETATM    1  C   UNL     1      63.163   7.494   3.524  1.00  0.00     0.091 A 
HETATM    2  C   UNL     1      62.426   8.694   3.314  1.00  0.00    -0.019 A 
HETATM    3  C   UNL     1      62.724   9.842   4.095  1.00  0.00    -0.020 A 
HETATM    4  C   UNL     1      64.162   7.411   4.502  1.00  0.00    -0.025 A 
HETATM    5  C   UNL     1      63.764   9.754   5.029  1.00  0.00     0.072 A 
HETATM    6  C   UNL     1      64.476   8.575   5.219  1.00  0.00     0.046 A 
HETATM    7  C   UNL     1      61.324   8.749   2.284  1.00  0.00     0.052 C 
HETATM    8  C   UNL     1      61.938  11.122   3.969  1.00  0.00     0.052 C 
HETATM    9  C   UNL     1      64.935   6.171   4.847  1.00  0.00     0.051 C 
ENDROOT
BRANCH   1  10
HETATM   10  O   UNL     1      62.714   6.362   2.779  1.00  0.00    -0.278 OA
BRANCH  10  11
HETATM   11  C   UNL     1      63.240   5.864   1.584  1.00  0.00     0.260 C 
HETATM   12  O   UNL     1      63.351   6.457   0.521  1.00  0.00    -0.265 OA
HETATM   13  C   UNL     1      63.592   4.413   1.770  1.00  0.00     0.126 C 
ENDBRANCH  10  11
ENDBRANCH   1  10
BRANCH   5  14
HETATM   14  O   UNL     1      64.139  10.796   5.833  1.00  0.00    -0.360 OA
HETATM   15  H   UNL     1      63.773  11.647   5.699  1.00  0.00     0.217 HD
ENDBRANCH   5  14
TORSDOF 3
ENDMDL
MODEL 7
REMARK VINA RESULT:      -4.1      2.997      5.406
REMARK  3 active torsions:
REMARK  status: ('A' for Active; 'I' for Inactive)
REMARK    1  A    between atoms: C_1  and  O_6 
REMARK    2  A    between atoms: C_5  and  O_10 
REMARK    3  A    between atoms: O_6  and  C_8 
ROOT
HETATM    1  C   UNL     1      60.886   7.567   3.813  1.00  0.00     0.091 A 
HETATM    2  C   UNL     1      61.988   8.467   3.846  1.00  0.00    -0.019 A 
HETATM    3  C   UNL     1      62.908   8.405   4.925  1.00  0.00    -0.020 A 
HETATM    4  C   UNL     1      60.673   6.633   4.836  1.00  0.00    -0.025 A 
HETATM    5  C   UNL     1      62.708   7.428   5.909  1.00  0.00     0.072 A 
HETATM    6  C   UNL     1      61.628   6.554   5.860  1.00  0.00     0.046 A 
HETATM    7  C   UNL     1      62.174   9.494   2.755  1.00  0.00     0.052 C 
HETATM    8  C   UNL     1      64.058   9.372   5.055  1.00  0.00     0.052 C 
HETATM    9  C   UNL     1      59.501   5.700   4.926  1.00  0.00     0.051 C 
ENDROOT
BRANCH   1  10
HETATM   10  O   UNL     1      59.951   7.782   2.756  1.00  0.00    -0.278 OA
BRANCH  10  11
HETATM   11  C   UNL     1      59.845   7.077   1.555  1.00  0.00     0.260 C 
HETATM   12  O   UNL     1      60.025   5.880   1.381  1.00  0.00    -0.265 OA
HETATM   13  C   UNL     1      59.547   8.046   0.442  1.00  0.00     0.126 C 
ENDBRANCH  10  11
ENDBRANCH   1  10
BRANCH   5  14
HETATM   14  O   UNL     1      63.532   7.275   6.992  1.00  0.00    -0.360 OA
HETATM   15  H   UNL     1      63.302   7.661   7.814  1.00  0.00     0.217 HD
ENDBRANCH   5  14
TORSDOF 3
ENDMDL
MODEL 8
REMARK VINA RESULT:      -4.0      2.581      4.937
REMARK  3 active torsions:
REMARK  status: ('A' for Active; 'I' for Inactive)
REMARK    1  A    between atoms: C_1  and  O_6 
REMARK    2  A    between atoms: C_5  and  O_10 
REMARK    3  A    between atoms: O_6  and  C_8 
ROOT
HETATM    1  C   UNL     1      61.203   8.133   3.384  1.00  0.00     0.091 A 
HETATM    2  C   UNL     1      61.498   7.184   4.402  1.00  0.00    -0.019 A 
HETATM    3  C   UNL     1      62.604   7.405   5.264  1.00  0.00    -0.020 A 
HETATM    4  C   UNL     1      61.995   9.274   3.196  1.00  0.00    -0.025 A 
HETATM    5  C   UNL     1      63.350   8.578   5.094  1.00  0.00     0.072 A 
HETATM    6  C   UNL     1      63.046   9.498   4.097  1.00  0.00     0.046 A 
HETATM    7  C   UNL     1      60.657   5.940   4.560  1.00  0.00     0.052 C 
HETATM    8  C   UNL     1      63.011   6.407   6.319  1.00  0.00     0.052 C 
HETATM    9  C   UNL     1      61.808  10.286   2.104  1.00  0.00     0.051 C 
ENDROOT
BRANCH   1  10
HETATM   10  O   UNL     1      60.149   7.768   2.493  1.00  0.00    -0.278 OA
BRANCH  10  11
HETATM   11  C   UNL     1      60.263   7.159   1.241  1.00  0.00     0.260 C 
HETATM   12  O   UNL     1      60.985   6.220   0.938  1.00  0.00    -0.265 OA
HETATM   13  C   UNL     1      59.402   7.901   0.254  1.00  0.00     0.126 C 
ENDBRANCH  10  11
ENDBRANCH   1  10
BRANCH   5  14
HETATM   14  O   UNL     1      64.434   8.896   5.868  1.00  0.00    -0.360 OA
HETATM   15  H   UNL     1      65.301   8.753   5.542  1.00  0.00     0.217 HD
ENDBRANCH   5  14
TORSDOF 3
ENDMDL
MODEL 9
REMARK VINA RESULT:      -4.0      3.767      5.754
REMARK  3 active torsions:
REMARK  status: ('A' for Active; 'I' for Inactive)
REMARK    1  A    between atoms: C_1  and  O_6 
REMARK    2  A    between atoms: C_5  and  O_10 
REMARK    3  A    between atoms: O_6  and  C_8 
ROOT
HETATM    1  C   UNL     1      60.367   6.898   4.318  1.00  0.00     0.091 A 
HETATM    2  C   UNL     1      61.379   7.836   3.970  1.00  0.00    -0.019 A 
HETATM    3  C   UNL     1      62.473   8.041   4.851  1.00  0.00    -0.020 A 
HETATM    4  C   UNL     1      60.411   6.187   5.525  1.00  0.00    -0.025 A 
HETATM    5  C   UNL     1      62.527   7.281   6.027  1.00  0.00     0.072 A 
HETATM    6  C   UNL     1      61.532   6.366   6.349  1.00  0.00     0.046 A 
HETATM    7  C   UNL     1      61.289   8.623   2.685  1.00  0.00     0.052 C 
HETATM    8  C   UNL     1      63.543   9.068   4.575  1.00  0.00     0.052 C 
HETATM    9  C   UNL     1      59.354   5.239   6.010  1.00  0.00     0.051 C 
ENDROOT
BRANCH   1  10
HETATM   10  O   UNL     1      59.249   6.846   3.431  1.00  0.00    -0.278 OA
BRANCH  10  11
HETATM   11  C   UNL     1      57.990   7.423   3.612  1.00  0.00     0.260 C 
HETATM   12  O   UNL     1      57.647   8.188   4.502  1.00  0.00    -0.265 OA
HETATM   13  C   UNL     1      57.051   6.889   2.564  1.00  0.00     0.126 C 
ENDBRANCH  10  11
ENDBRANCH   1  10
BRANCH   5  14
HETATM   14  O   UNL     1      63.534   7.394   6.946  1.00  0.00    -0.360 OA
HETATM   15  H   UNL     1      63.401   7.892   7.729  1.00  0.00     0.217 HD
ENDBRANCH   5  14
TORSDOF 3
ENDMDL
