MODEL 1
REMARK VINA RESULT:      -5.1      0.000      0.000
REMARK  4 active torsions:
REMARK  status: ('A' for Active; 'I' for Inactive)
REMARK    1  A    between atoms: N_1  and  C_5 
REMARK    2  A    between atoms: N_2  and  C_6 
REMARK    3  A    between atoms: C_5  and  C_6 
REMARK    4  A    between atoms: C_5  and  C_7 
ROOT
HETATM    1  C   UNL     1      63.314   7.504   5.021  1.00  0.00     0.308 C 
ENDROOT
BRANCH   1   2
HETATM    2  N   UNL     1      64.505   7.832   5.879  1.00  0.00    -0.048 N 
HETATM    3  C   UNL     1      64.889   6.763   6.841  1.00  0.00     0.263 C 
HETATM    4  C   UNL     1      65.708   5.581   6.267  1.00  0.00     0.195 C 
HETATM    5  O   UNL     1      66.862   6.038   5.553  1.00  0.00    -0.388 OA
HETATM    6  C   UNL     1      66.547   6.998   4.540  1.00  0.00     0.195 C 
HETATM    7  C   UNL     1      65.717   8.180   5.093  1.00  0.00     0.263 C 
HETATM    8  H   UNL     1      64.179   8.644   6.403  1.00  0.00     0.282 HD
ENDBRANCH   1   2
BRANCH   1   9
HETATM    9  C   UNL     1      62.227   6.888   5.886  1.00  0.00    -0.039 C 
BRANCH   9  10
HETATM   10  N   UNL     1      61.324   6.376   6.604  1.00  0.00    -0.368 N 
ATOM     11  HN2 UNL     1      62.055   6.792   6.026  1.00  0.00     0.165 HD
ATOM     12  HN1 UNL     1      60.594   5.963   7.183  1.00  0.00     0.165 HD
ENDBRANCH   9  10
ENDBRANCH   1   9
BRANCH   1  13
HETATM   13  C   UNL     1      62.801   8.735   4.254  1.00  0.00    -0.015 A 
HETATM   14  C   UNL     1      62.496   8.618   2.887  1.00  0.00     0.010 A 
HETATM   15  C   UNL     1      62.051   9.724   2.155  1.00  0.00     0.001 A 
HETATM   16  C   UNL     1      61.896  10.963   2.774  1.00  0.00     0.000 A 
HETATM   17  C   UNL     1      62.183  11.100   4.127  1.00  0.00     0.001 A 
HETATM   18  C   UNL     1      62.634   9.999   4.862  1.00  0.00     0.010 A 
ENDBRANCH   1  13
TORSDOF 4
ENDMDL
MODEL 2
REMARK VINA RESULT:      -4.9      1.720      2.615
REMARK  4 active torsions:
REMARK  status: ('A' for Active; 'I' for Inactive)
REMARK    1  A    between atoms: N_1  and  C_5 
REMARK    2  A    between atoms: N_2  and  C_6 
REMARK    3  A    between atoms: C_5  and  C_6 
REMARK    4  A    between atoms: C_5  and  C_7 
ROOT
HETATM    1  C   UNL     1      63.120   8.678   4.766  1.00  0.00     0.308 C 
ENDROOT
BRANCH   1   2
HETATM    2  N   UNL     1      64.522   8.223   4.467  1.00  0.00    -0.048 N 
HETATM    3  C   UNL     1      65.431   8.200   5.646  1.00  0.00     0.263 C 
HETATM    4  C   UNL     1      65.305   6.980   6.591  1.00  0.00     0.195 C 
HETATM    5  O   UNL     1      65.399   5.746   5.871  1.00  0.00    -0.388 OA
HETATM    6  C   UNL     1      64.477   5.662   4.781  1.00  0.00     0.195 C 
HETATM    7  C   UNL     1      64.581   6.880   3.833  1.00  0.00     0.263 C 
HETATM    8  H   UNL     1      64.848   8.935   3.814  1.00  0.00     0.282 HD
ENDBRANCH   1   2
BRANCH   1   9
HETATM    9  C   UNL     1      63.162  10.079   5.354  1.00  0.00    -0.039 C 
BRANCH   9  10
HETATM   10  N   UNL     1      63.197  11.242   5.841  1.00  0.00    -0.368 N 
ATOM     11  HN2 UNL     1      63.168  10.301   5.450  1.00  0.00     0.165 HD
ATOM     12  HN1 UNL     1      63.226  12.182   6.236  1.00  0.00     0.165 HD
ENDBRANCH   9  10
ENDBRANCH   1   9
BRANCH   1  13
HETATM   13  C   UNL     1      62.216   8.610   3.523  1.00  0.00    -0.015 A 
HETATM   14  C   UNL     1      61.115   7.736   3.518  1.00  0.00     0.010 A 
HETATM   15  C   UNL     1      60.288   7.632   2.395  1.00  0.00     0.001 A 
HETATM   16  C   UNL     1      60.539   8.401   1.261  1.00  0.00     0.000 A 
HETATM   17  C   UNL     1      61.617   9.279   1.246  1.00  0.00     0.001 A 
HETATM   18  C   UNL     1      62.450   9.383   2.364  1.00  0.00     0.010 A 
ENDBRANCH   1  13
TORSDOF 4
ENDMDL
MODEL 3
REMARK VINA RESULT:      -4.8      2.068      3.402
REMARK  4 active torsions:
REMARK  status: ('A' for Active; 'I' for Inactive)
REMARK    1  A    between atoms: N_1  and  C_5 
REMARK    2  A    between atoms: N_2  and  C_6 
REMARK    3  A    between atoms: C_5  and  C_6 
REMARK    4  A    between atoms: C_5  and  C_7 
ROOT
HETATM    1  C   UNL     1      63.063   8.027   4.701  1.00  0.00     0.308 C 
ENDROOT
BRANCH   1   2
HETATM    2  N   UNL     1      62.456   6.701   4.336  1.00  0.00    -0.048 N 
HETATM    3  C   UNL     1      63.229   5.516   4.802  1.00  0.00     0.263 C 
HETATM    4  C   UNL     1      63.050   5.117   6.287  1.00  0.00     0.195 C 
HETATM    5  O   UNL     1      61.667   4.969   6.629  1.00  0.00    -0.388 OA
HETATM    6  C   UNL     1      60.884   6.119   6.297  1.00  0.00     0.195 C 
HETATM    7  C   UNL     1      61.060   6.540   4.820  1.00  0.00     0.263 C 
HETATM    8  H   UNL     1      62.476   6.725   3.316  1.00  0.00     0.282 HD
ENDBRANCH   1   2
BRANCH   1   9
HETATM    9  C   UNL     1      64.577   7.893   4.740  1.00  0.00    -0.039 C 
BRANCH   9  10
HETATM   10  N   UNL     1      65.833   7.782   4.772  1.00  0.00    -0.368 N 
ATOM     11  HN2 UNL     1      64.817   7.873   4.749  1.00  0.00     0.165 HD
ATOM     12  HN1 UNL     1      66.848   7.691   4.797  1.00  0.00     0.165 HD
ENDBRANCH   9  10
ENDBRANCH   1   9
BRANCH   1  13
HETATM   13  C   UNL     1      62.616   9.147   3.746  1.00  0.00    -0.015 A 
HETATM   14  C   UNL     1      62.326  10.421   4.264  1.00  0.00     0.010 A 
HETATM   15  C   UNL     1      61.894  11.454   3.426  1.00  0.00     0.001 A 
HETATM   16  C   UNL     1      61.748  11.237   2.057  1.00  0.00     0.000 A 
HETATM   17  C   UNL     1      62.037   9.987   1.521  1.00  0.00     0.001 A 
HETATM   18  C   UNL     1      62.464   8.950   2.355  1.00  0.00     0.010 A 
ENDBRANCH   1  13
TORSDOF 4
ENDMDL
MODEL 4
REMARK VINA RESULT:      -4.6      2.112      3.582
REMARK  4 active torsions:
REMARK  status: ('A' for Active; 'I' for Inactive)
REMARK    1  A    between atoms: N_1  and  C_5 
REMARK    2  A    between atoms: N_2  and  C_6 
REMARK    3  A    between atoms: C_5  and  C_6 
REMARK    4  A    between atoms: C_5  and  C_7 
ROOT
HETATM    1  C   UNL     1      66.135   6.837   5.165  1.00  0.00     0.308 C 
ENDROOT
BRANCH   1   2
HETATM    2  N   UNL     1      65.795   5.880   6.274  1.00  0.00    -0.048 N 
HETATM    3  C   UNL     1      66.779   4.779   6.467  1.00  0.00     0.263 C 
HETATM    4  C   UNL     1      68.065   5.133   7.253  1.00  0.00     0.195 C 
HETATM    5  O   UNL     1      67.761   5.748   8.509  1.00  0.00    -0.388 OA
HETATM    6  C   UNL     1      66.895   6.879   8.383  1.00  0.00     0.195 C 
HETATM    7  C   UNL     1      65.611   6.547   7.590  1.00  0.00     0.263 C 
HETATM    8  H   UNL     1      64.912   5.480   5.955  1.00  0.00     0.282 HD
ENDBRANCH   1   2
BRANCH   1   9
HETATM    9  C   UNL     1      66.861   6.086   4.060  1.00  0.00    -0.039 C 
BRANCH   9  10
HETATM   10  N   UNL     1      67.464   5.464   3.143  1.00  0.00    -0.368 N 
ATOM     11  HN2 UNL     1      66.974   5.964   3.885  1.00  0.00     0.165 HD
ATOM     12  HN1 UNL     1      67.951   4.961   2.402  1.00  0.00     0.165 HD
ENDBRANCH   9  10
ENDBRANCH   1   9
BRANCH   1  13
HETATM   13  C   UNL     1      64.890   7.566   4.633  1.00  0.00    -0.015 A 
HETATM   14  C   UNL     1      64.537   8.814   5.175  1.00  0.00     0.010 A 
HETATM   15  C   UNL     1      63.398   9.492   4.730  1.00  0.00     0.001 A 
HETATM   16  C   UNL     1      62.593   8.942   3.735  1.00  0.00     0.000 A 
HETATM   17  C   UNL     1      62.926   7.713   3.178  1.00  0.00     0.001 A 
HETATM   18  C   UNL     1      64.062   7.029   3.622  1.00  0.00     0.010 A 
ENDBRANCH   1  13
TORSDOF 4
ENDMDL
MODEL 5
REMARK VINA RESULT:      -4.5      2.473      5.242
REMARK  4 active torsions:
REMARK  status: ('A' for Active; 'I' for Inactive)
REMARK    1  A    between atoms: N_1  and  C_5 
REMARK    2  A    between atoms: N_2  and  C_6 
REMARK    3  A    between atoms: C_5  and  C_6 
REMARK    4  A    between atoms: C_5  and  C_7 
ROOT
HETATM    1  C   UNL     1      63.726   9.027   4.428  1.00  0.00     0.308 C 
ENDROOT
BRANCH   1   2
HETATM    2  N   UNL     1      62.350   8.622   3.974  1.00  0.00    -0.048 N 
HETATM    3  C   UNL     1      61.497   9.747   3.503  1.00  0.00     0.263 C 
HETATM    4  C   UNL     1      61.754  10.251   2.062  1.00  0.00     0.195 C 
HETATM    5  O   UNL     1      61.720   9.177   1.115  1.00  0.00    -0.388 OA
HETATM    6  C   UNL     1      62.598   8.102   1.459  1.00  0.00     0.195 C 
HETATM    7  C   UNL     1      62.364   7.594   2.901  1.00  0.00     0.263 C 
HETATM    8  H   UNL     1      61.944   8.236   4.827  1.00  0.00     0.282 HD
ENDBRANCH   1   2
BRANCH   1   9
HETATM    9  C   UNL     1      63.615  10.223   5.360  1.00  0.00    -0.039 C 
BRANCH   9  10
HETATM   10  N   UNL     1      63.524  11.215   6.133  1.00  0.00    -0.368 N 
ATOM     11  HN2 UNL     1      63.599  10.411   5.510  1.00  0.00     0.165 HD
ATOM     12  HN1 UNL     1      63.450  12.018   6.758  1.00  0.00     0.165 HD
ENDBRANCH   9  10
ENDBRANCH   1   9
BRANCH   1  13
HETATM   13  C   UNL     1      64.480   7.860   5.087  1.00  0.00    -0.015 A 
HETATM   14  C   UNL     1      63.879   7.161   6.148  1.00  0.00     0.010 A 
HETATM   15  C   UNL     1      64.548   6.111   6.785  1.00  0.00     0.001 A 
HETATM   16  C   UNL     1      65.825   5.736   6.373  1.00  0.00     0.000 A 
HETATM   17  C   UNL     1      66.437   6.407   5.320  1.00  0.00     0.001 A 
HETATM   18  C   UNL     1      65.774   7.460   4.684  1.00  0.00     0.010 A 
ENDBRANCH   1  13
TORSDOF 4
ENDMDL
MODEL 6
REMARK VINA RESULT:      -4.4      1.902      2.536
REMARK  4 active torsions:
REMARK  status: ('A' for Active; 'I' for Inactive)
REMARK    1  A    between atoms: N_1  and  C_5 
REMARK    2  A    between atoms: N_2  and  C_6 
REMARK    3  A    between atoms: C_5  and  C_6 
REMARK    4  A    between atoms: C_5  and  C_7 
ROOT
HETATM    1  C   UNL     1      64.590   7.451   4.850  1.00  0.00     0.308 C 
ENDROOT
BRANCH   1   2
HETATM    2  N   UNL     1      65.320   6.781   3.719  1.00  0.00    -0.048 N 
HETATM    3  C   UNL     1      66.776   6.579   3.954  1.00  0.00     0.263 C 
HETATM    4  C   UNL     1      67.171   5.371   4.838  1.00  0.00     0.195 C 
HETATM    5  O   UNL     1      66.574   4.158   4.368  1.00  0.00    -0.388 OA
HETATM    6  C   UNL     1      65.156   4.255   4.216  1.00  0.00     0.195 C 
HETATM    7  C   UNL     1      64.743   5.464   3.345  1.00  0.00     0.263 C 
HETATM    8  H   UNL     1      65.200   7.448   2.956  1.00  0.00     0.282 HD
ENDBRANCH   1   2
BRANCH   1   9
HETATM    9  C   UNL     1      65.601   8.008   5.839  1.00  0.00    -0.039 C 
BRANCH   9  10
HETATM   10  N   UNL     1      66.440   8.471   6.660  1.00  0.00    -0.368 N 
ATOM     11  HN2 UNL     1      65.759   8.098   5.998  1.00  0.00     0.165 HD
ATOM     12  HN1 UNL     1      67.118   8.844   7.324  1.00  0.00     0.165 HD
ENDBRANCH   9  10
ENDBRANCH   1   9
BRANCH   1  13
HETATM   13  C   UNL     1      63.627   8.540   4.349  1.00  0.00    -0.015 A 
HETATM   14  C   UNL     1      63.027   8.401   3.085  1.00  0.00     0.010 A 
HETATM   15  C   UNL     1      62.164   9.385   2.589  1.00  0.00     0.001 A 
HETATM   16  C   UNL     1      61.881  10.520   3.346  1.00  0.00     0.000 A 
HETATM   17  C   UNL     1      62.456  10.675   4.602  1.00  0.00     0.001 A 
HETATM   18  C   UNL     1      63.322   9.697   5.100  1.00  0.00     0.010 A 
ENDBRANCH   1  13
TORSDOF 4
ENDMDL
MODEL 7
REMARK VINA RESULT:      -4.4      1.796      2.795
REMARK  4 active torsions:
REMARK  status: ('A' for Active; 'I' for Inactive)
REMARK    1  A    between atoms: N_1  and  C_5 
REMARK    2  A    between atoms: N_2  and  C_6 
REMARK    3  A    between atoms: C_5  and  C_6 
REMARK    4  A    between atoms: C_5  and  C_7 
ROOT
HETATM    1  C   UNL     1      64.258   7.590   4.790  1.00  0.00     0.308 C 
ENDROOT
BRANCH   1   2
HETATM    2  N   UNL     1      64.862   6.805   3.659  1.00  0.00    -0.048 N 
HETATM    3  C   UNL     1      66.278   6.398   3.873  1.00  0.00     0.263 C 
HETATM    4  C   UNL     1      66.512   5.160   4.773  1.00  0.00     0.195 C 
HETATM    5  O   UNL     1      65.739   4.038   4.334  1.00  0.00    -0.388 OA
HETATM    6  C   UNL     1      64.346   4.336   4.205  1.00  0.00     0.195 C 
HETATM    7  C   UNL     1      64.094   5.579   3.319  1.00  0.00     0.263 C 
HETATM    8  H   UNL     1      64.824   7.470   2.887  1.00  0.00     0.282 HD
ENDBRANCH   1   2
BRANCH   1   9
HETATM    9  C   UNL     1      65.363   8.045   5.731  1.00  0.00    -0.039 C 
BRANCH   9  10
HETATM   10  N   UNL     1      66.279   8.422   6.512  1.00  0.00    -0.368 N 
ATOM     11  HN2 UNL     1      65.535   8.119   5.882  1.00  0.00     0.165 HD
ATOM     12  HN1 UNL     1      67.020   8.726   7.143  1.00  0.00     0.165 HD
ENDBRANCH   9  10
ENDBRANCH   1   9
BRANCH   1  13
HETATM   13  C   UNL     1      63.420   8.776   4.284  1.00  0.00    -0.015 A 
HETATM   14  C   UNL     1      63.234   9.894   5.114  1.00  0.00     0.010 A 
HETATM   15  C   UNL     1      62.456  10.978   4.693  1.00  0.00     0.001 A 
HETATM   16  C   UNL     1      61.856  10.969   3.436  1.00  0.00     0.000 A 
HETATM   17  C   UNL     1      62.033   9.878   2.594  1.00  0.00     0.001 A 
HETATM   18  C   UNL     1      62.805   8.790   3.012  1.00  0.00     0.010 A 
ENDBRANCH   1  13
TORSDOF 4
ENDMDL
MODEL 8
REMARK VINA RESULT:      -4.2      2.777      4.159
REMARK  4 active torsions:
REMARK  status: ('A' for Active; 'I' for Inactive)
REMARK    1  A    between atoms: N_1  and  C_5 
REMARK    2  A    between atoms: N_2  and  C_6 
REMARK    3  A    between atoms: C_5  and  C_6 
REMARK    4  A    between atoms: C_5  and  C_7 
ROOT
HETATM    1  C   UNL     1      61.850   7.531   4.959  1.00  0.00     0.308 C 
ENDROOT
BRANCH   1   2
HETATM    2  N   UNL     1      61.343   6.116   4.932  1.00  0.00    -0.048 N 
HETATM    3  C   UNL     1      61.425   5.403   6.237  1.00  0.00     0.263 C 
HETATM    4  C   UNL     1      60.310   5.715   7.265  1.00  0.00     0.195 C 
HETATM    5  O   UNL     1      59.008   5.550   6.694  1.00  0.00    -0.388 OA
HETATM    6  C   UNL     1      58.829   6.293   5.485  1.00  0.00     0.195 C 
HETATM    7  C   UNL     1      59.941   6.003   4.451  1.00  0.00     0.263 C 
HETATM    8  H   UNL     1      61.979   5.668   4.273  1.00  0.00     0.282 HD
ENDBRANCH   1   2
BRANCH   1   9
HETATM    9  C   UNL     1      63.178   7.575   5.698  1.00  0.00    -0.039 C 
BRANCH   9  10
HETATM   10  N   UNL     1      64.280   7.611   6.311  1.00  0.00    -0.368 N 
ATOM     11  HN2 UNL     1      63.390   7.584   5.813  1.00  0.00     0.165 HD
ATOM     12  HN1 UNL     1      65.170   7.640   6.807  1.00  0.00     0.165 HD
ENDBRANCH   9  10
ENDBRANCH   1   9
BRANCH   1  13
HETATM   13  C   UNL     1      61.966   8.128   3.546  1.00  0.00    -0.015 A 
HETATM   14  C   UNL     1      62.379   7.306   2.482  1.00  0.00     0.010 A 
HETATM   15  C   UNL     1      62.518   7.823   1.190  1.00  0.00     0.001 A 
HETATM   16  C   UNL     1      62.243   9.165   0.934  1.00  0.00     0.000 A 
HETATM   17  C   UNL     1      61.825   9.995   1.969  1.00  0.00     0.001 A 
HETATM   18  C   UNL     1      61.689   9.484   3.263  1.00  0.00     0.010 A 
ENDBRANCH   1  13
TORSDOF 4
ENDMDL
MODEL 9
REMARK VINA RESULT:      -4.1      2.599      4.028
REMARK  4 active torsions:
REMARK  status: ('A' for Active; 'I' for Inactive)
REMARK    1  A    between atoms: N_1  and  C_5 
REMARK    2  A    between atoms: N_2  and  C_6 
REMARK    3  A    between atoms: C_5  and  C_6 
REMARK    4  A    between atoms: C_5  and  C_7 
ROOT
HETATM    1  C   UNL     1      65.842   5.898   6.890  1.00  0.00     0.308 C 
ENDROOT
BRANCH   1   2
HETATM    2  N   UNL     1      66.717   5.237   5.861  1.00  0.00    -0.048 N 
HETATM    3  C   UNL     1      67.843   4.442   6.424  1.00  0.00     0.263 C 
HETATM    4  C   UNL     1      67.496   3.026   6.943  1.00  0.00     0.195 C 
HETATM    5  O   UNL     1      66.797   2.260   5.955  1.00  0.00    -0.388 OA
HETATM    6  C   UNL     1      65.641   2.930   5.444  1.00  0.00     0.195 C 
HETATM    7  C   UNL     1      65.968   4.352   4.933  1.00  0.00     0.263 C 
HETATM    8  H   UNL     1      67.100   6.036   5.355  1.00  0.00     0.282 HD
ENDBRANCH   1   2
BRANCH   1   9
HETATM    9  C   UNL     1      66.716   6.569   7.937  1.00  0.00    -0.039 C 
BRANCH   9  10
HETATM   10  N   UNL     1      67.442   7.126   8.806  1.00  0.00    -0.368 N 
ATOM     11  HN2 UNL     1      66.857   6.673   8.104  1.00  0.00     0.165 HD
ATOM     12  HN1 UNL     1      68.028   7.577   9.507  1.00  0.00     0.165 HD
ENDBRANCH   9  10
ENDBRANCH   1   9
BRANCH   1  13
HETATM   13  C   UNL     1      64.854   6.890   6.254  1.00  0.00    -0.015 A 
HETATM   14  C   UNL     1      63.472   6.659   6.371  1.00  0.00     0.010 A 
HETATM   15  C   UNL     1      62.548   7.528   5.783  1.00  0.00     0.001 A 
HETATM   16  C   UNL     1      62.984   8.646   5.073  1.00  0.00     0.000 A 
HETATM   17  C   UNL     1      64.345   8.899   4.951  1.00  0.00     0.001 A 
HETATM   18  C   UNL     1      65.273   8.030   5.533  1.00  0.00     0.010 A 
ENDBRANCH   1  13
TORSDOF 4
ENDMDL
