
 OpenBabel02131620232D

 14 15  0  0  0  0  0  0  0  0999 V2000
    5.7750   -1.7334    0.0000 S   0  0  0  0  0  0  0  0  0  0  0  0
    5.7667   -2.5584    0.0000 C   0  0  0  0  0  0  0  0  0  0  0  0
    5.0542   -2.9709    0.0000 C   0  0  0  0  0  0  0  0  0  0  0  0
    5.0542   -3.7959    0.0000 C   0  0  0  0  0  0  0  0  0  0  0  0
    6.4792   -2.9792    0.0000 C   0  0  0  0  0  0  0  0  0  0  0  0
    4.3375   -2.5584    0.0000 C   0  0  0  0  0  0  0  0  0  0  0  0
    6.4792   -3.8042    0.0000 C   0  0  0  0  0  0  0  0  0  0  0  0
    5.7667   -4.2167    0.0000 C   0  0  0  0  0  0  0  0  0  0  0  0
    4.3375   -4.2084    0.0000 C   0  0  0  0  0  0  0  0  0  0  0  0
    3.6292   -2.9625    0.0000 C   0  0  0  0  0  0  0  0  0  0  0  0
    3.6167   -3.7959    0.0000 C   0  0  0  0  0  0  0  0  0  0  0  0
    6.4936   -1.3281    0.0000 O   0  0  0  0  0  0  0  0  0  0  0  0
    5.0647   -1.3137    0.0000 O   0  0  0  0  0  0  0  0  0  0  0  0
    6.5697   -1.9549    0.0000 Cl  0  0  0  0  0  0  0  0  0  0  0  0
  1 12  2  0  0  0  0
  1 13  2  0  0  0  0
  1 14  1  0  0  0  0
  2  1  1  0  0  0  0
  3  2  2  0  0  0  0
  4  3  1  0  0  0  0
  4  8  2  0  0  0  0
  5  2  1  0  0  0  0
  6  3  1  0  0  0  0
  7  5  2  0  0  0  0
  8  7  1  0  0  0  0
  9  4  1  0  0  0  0
  9 11  2  0  0  0  0
 10  6  2  0  0  0  0
 11 10  1  0  0  0  0
M  END
>  <MOLFORMULA>
C10 H7 Cl O2 S

>  <MOLWEIGHT>
2.266823000000000e+002

>  <code>
AC21664

>  <appearance>
solid

>  <purity>
97%

>  <product_name>
1-naphthalenesulfonyl chloride

>  <cansmi>
ClS(=O)(=O)c1cccc2c1cccc2

>  <HBA2>
2

>  <HBD>
0

>  <logP>
3.8481

>  <TPSA>
42.52

>  <MW>
226.679

$$$$

 OpenBabel02131620232D

 14 14  0  0  0  0  0  0  0  0999 V2000
    5.0291  -15.1208    0.0000 N   0  0  0  0  0  0  0  0  0  0  0  0
    4.3598  -14.6384    0.0000 N   0  0  0  0  0  0  0  0  0  0  0  0
    4.6166  -13.8501    0.0000 C   0  0  0  0  0  0  0  0  0  0  0  0
    5.4416  -13.8501    0.0000 C   0  0  0  0  0  0  0  0  0  0  0  0
    5.6984  -14.6384    0.0000 C   0  0  0  0  0  0  0  0  0  0  0  0
    5.0291  -15.9458    0.0000 C   0  0  0  0  0  0  0  0  0  0  0  0
    4.1320  -13.1824    0.0000 C   0  0  0  0  0  0  0  0  0  0  0  0
    5.9263  -13.1824    0.0000 S   0  0  0  0  0  0  0  0  0  0  0  0
    5.2083  -12.7667    0.0000 O   0  0  0  0  0  0  0  0  0  0  0  0
    6.5083  -12.5917    0.0000 O   0  0  0  0  0  0  0  0  0  0  0  0
    6.6375  -13.5917    0.0000 Cl  0  0  0  0  0  0  0  0  0  0  0  0
    4.4679  -12.4289    0.0000 F   0  0  0  0  0  0  0  0  0  0  0  0
    3.3115  -13.2682    0.0000 F   0  0  0  0  0  0  0  0  0  0  0  0
    3.5416  -12.5916    0.0000 F   0  0  0  0  0  0  0  0  0  0  0  0
  1  2  1  0  0  0  0
  1  6  1  0  0  0  0
  2  3  2  0  0  0  0
  3  7  1  0  0  0  0
  3  4  1  0  0  0  0
  4  8  1  0  0  0  0
  4  5  2  0  0  0  0
  5  1  1  0  0  0  0
  7 12  1  0  0  0  0
  7 13  1  0  0  0  0
  7 14  1  0  0  0  0
  8  9  2  0  0  0  0
  8 10  2  0  0  0  0
  8 11  1  0  0  0  0
M  END
>  <MOLFORMULA>
C5 H4 Cl F3 N2 O2 S

>  <MOLWEIGHT>
2.486116000000000e+002

>  <code>
AW00087

>  <appearance>
solid

>  <purity>
97%

>  <product_name>
1-methyl-3-(trifluoromethyl)-1H-pyrazole-4-sulfonyl chloride

>  <cansmi>
Cn1nc(c(c1)S(=O)(=O)Cl)C(F)(F)F

>  <HBA2>
4

>  <HBD>
0

>  <logP>
2.4472

>  <TPSA>
60.34

>  <MW>
248.611

$$$$

 OpenBabel02131620232D

 21 22  0  0  0  0  0  0  0  0999 V2000
    4.0000   -2.1417    0.0000 S   0  0  0  0  0  0  0  0  0  0  0  0
   -3.9958    2.4625    0.0000 N   0  0  0  0  0  0  0  0  0  0  0  0
   -3.9875    0.9208    0.0000 C   0  0  0  0  0  0  0  0  0  0  0  0
   -2.6583    0.1500    0.0000 C   0  0  0  0  0  0  0  0  0  0  0  0
    2.6667   -1.3792    0.0000 C   0  0  0  0  0  0  0  0  0  0  0  0
   -1.3250    0.9208    0.0000 O   0  0  0  0  0  0  0  0  0  0  0  0
    2.9042   -3.2250    0.0000 O   0  0  0  0  0  0  0  0  0  0  0  0
    5.0792   -3.2250    0.0000 O   0  0  0  0  0  0  0  0  0  0  0  0
   -2.6708    3.2333    0.0000 O   0  0  0  0  0  0  0  0  0  0  0  0
   -5.3333    3.2333    0.0000 O   0  0  0  0  0  0  0  0  0  0  0  0
   -2.6583   -1.3875    0.0000 C   0  0  0  0  0  0  0  0  0  0  0  0
    5.3250   -1.3667    0.0000 Cl  0  0  0  0  0  0  0  0  0  0  0  0
    2.6667    0.1583    0.0000 C   0  0  0  0  0  0  0  0  0  0  0  0
    1.3375   -2.1500    0.0000 C   0  0  0  0  0  0  0  0  0  0  0  0
    0.0042    0.1500    0.0000 C   0  0  0  0  0  0  0  0  0  0  0  0
   -5.3333    0.1500    0.0000 C   0  0  0  0  0  0  0  0  0  0  0  0
   -1.3250   -2.1542    0.0000 Cl  0  0  0  0  0  0  0  0  0  0  0  0
    1.3375    0.9333    0.0000 C   0  0  0  0  0  0  0  0  0  0  0  0
    0.0042   -1.3792    0.0000 C   0  0  0  0  0  0  0  0  0  0  0  0
   -5.3333   -1.3875    0.0000 C   0  0  0  0  0  0  0  0  0  0  0  0
   -3.9875   -2.1542    0.0000 C   0  0  0  0  0  0  0  0  0  0  0  0
  2  3  1  0  0  0  0
  3  4  2  0  0  0  0
  4  6  1  0  0  0  0
  5  1  1  0  0  0  0
  6 15  1  0  0  0  0
  7  1  2  0  0  0  0
  8  1  2  0  0  0  0
  9  2  2  0  0  0  0
 10  2  2  0  0  0  0
 11  4  1  0  0  0  0
 12  1  1  0  0  0  0
 13  5  1  0  0  0  0
 14  5  2  0  0  0  0
 15 19  2  0  0  0  0
 16  3  1  0  0  0  0
 16 20  2  0  0  0  0
 17 11  1  0  0  0  0
 18 13  2  0  0  0  0
 18 15  1  0  0  0  0
 19 14  1  0  0  0  0
 20 21  1  0  0  0  0
 21 11  2  0  0  0  0
M  END
>  <MOLFORMULA>
C12 H7 Cl2 N O5 S

>  <MOLWEIGHT>
3.481613000000000e+002

>  <code>
BTB02778

>  <appearance>
solid

>  <purity>
97%

>  <product_name>
4-(2-chloro-6-nitrophenoxy)benzene-1-sulfonyl chloride

>  <cansmi>
Clc1cccc(c1Oc1ccc(cc1)S(=O)(=O)Cl)N(=O)=O

>  <HBA2>
3

>  <HBD>
0

>  <logP>
5.572

>  <TPSA>
97.57

>  <MW>
348.159

$$$$

 OpenBabel02131620232D

 13 13  0  0  0  0  0  0  0  0999 V2000
    2.0042    1.0083    0.0000 S   0  0  0  0  0  0  0  0  0  0  0  0
    0.6667    0.2333    0.0000 C   0  0  0  0  0  0  0  0  0  0  0  0
   -0.6625    1.0083    0.0000 C   0  0  0  0  0  0  0  0  0  0  0  0
    0.9042    2.0833    0.0000 O   0  0  0  0  0  0  0  0  0  0  0  0
    3.0792    2.0833    0.0000 O   0  0  0  0  0  0  0  0  0  0  0  0
    0.6667   -1.3042    0.0000 C   0  0  0  0  0  0  0  0  0  0  0  0
    3.3250    0.2208    0.0000 Cl  0  0  0  0  0  0  0  0  0  0  0  0
   -0.6708   -2.0750    0.0000 C   0  0  0  0  0  0  0  0  0  0  0  0
   -1.9958    0.2333    0.0000 C   0  0  0  0  0  0  0  0  0  0  0  0
   -1.9958   -1.2917    0.0000 C   0  0  0  0  0  0  0  0  0  0  0  0
   -3.3333    1.0083    0.0000 Br  0  0  0  0  0  0  0  0  0  0  0  0
    2.0042   -2.0750    0.0000 O   0  0  0  0  0  0  0  0  0  0  0  0
    3.3250   -1.2875    0.0000 C   0  0  0  0  0  0  0  0  0  0  0  0
  2  1  1  0  0  0  0
  3  2  2  0  0  0  0
  4  1  2  0  0  0  0
  5  1  2  0  0  0  0
  6  2  1  0  0  0  0
  7  1  1  0  0  0  0
  8  6  2  0  0  0  0
  9  3  1  0  0  0  0
  9 10  2  0  0  0  0
 10  8  1  0  0  0  0
 11  9  1  0  0  0  0
 12  6  1  0  0  0  0
 13 12  1  0  0  0  0
M  END
>  <MOLFORMULA>
C7 H6 Br Cl O3 S

>  <MOLWEIGHT>
2.855444000000000e+002

>  <code>
BTB04911

>  <appearance>
solid

>  <purity>
97%

>  <product_name>
5-bromo-2-methoxybenzene-1-sulfonyl chloride

>  <cansmi>
COc1ccc(cc1S(=O)(=O)Cl)Br

>  <HBA2>
3

>  <HBD>
0

>  <logP>
3.466

>  <TPSA>
51.75

>  <MW>
285.543

$$$$

 OpenBabel02131620232D

 14 14  0  0  0  0  0  0  0  0999 V2000
    2.6750    0.7708    0.0000 S   0  0  0  0  0  0  0  0  0  0  0  0
   -2.6708    0.7750    0.0000 N   0  0  0  0  0  0  0  0  0  0  0  0
    1.3417    0.0000    0.0000 C   0  0  0  0  0  0  0  0  0  0  0  0
    0.0042    0.7708    0.0000 C   0  0  0  0  0  0  0  0  0  0  0  0
   -1.3333    0.0000    0.0000 C   0  0  0  0  0  0  0  0  0  0  0  0
    3.7500    1.8500    0.0000 O   0  0  0  0  0  0  0  0  0  0  0  0
    1.5792    1.8500    0.0000 O   0  0  0  0  0  0  0  0  0  0  0  0
   -2.6708    2.3208    0.0000 O   0  0  0  0  0  0  0  0  0  0  0  0
   -4.0000    0.0083    0.0000 O   0  0  0  0  0  0  0  0  0  0  0  0
    1.3417   -1.5417    0.0000 C   0  0  0  0  0  0  0  0  0  0  0  0
    3.9917   -0.0125    0.0000 Cl  0  0  0  0  0  0  0  0  0  0  0  0
   -1.3250   -1.5292    0.0000 C   0  0  0  0  0  0  0  0  0  0  0  0
    0.0042   -2.3042    0.0000 C   0  0  0  0  0  0  0  0  0  0  0  0
    2.6750   -2.3125    0.0000 C   0  0  0  0  0  0  0  0  0  0  0  0
  2  5  1  0  0  0  0
  3  1  1  0  0  0  0
  4  3  2  0  0  0  0
  5  4  1  0  0  0  0
  5 12  2  0  0  0  0
  6  1  2  0  0  0  0
  7  1  2  0  0  0  0
  8  2  2  0  0  0  0
  9  2  2  0  0  0  0
 10  3  1  0  0  0  0
 11  1  1  0  0  0  0
 12 13  1  0  0  0  0
 13 10  2  0  0  0  0
 14 10  1  0  0  0  0
M  END
>  <MOLFORMULA>
C7 H6 Cl N O4 S

>  <MOLWEIGHT>
2.356464000000000e+002

>  <code>
BTB05516

>  <appearance>
solid

>  <purity>
97%

>  <product_name>
2-methyl-5-nitrobenzene-1-sulfonyl chloride

>  <cansmi>
O=N(=O)c1ccc(c(c1)S(=O)(=O)Cl)C

>  <HBA2>
2

>  <HBD>
0

>  <logP>
3.4347

>  <TPSA>
88.34

>  <MW>
235.645

$$$$

 OpenBabel02131620232D

 12 12  0  0  0  0  0  0  0  0999 V2000
    2.0000    1.0000    0.0000 S   0  0  0  0  0  0  0  0  0  0  0  0
    0.6667    0.2333    0.0000 C   0  0  0  0  0  0  0  0  0  0  0  0
   -0.6625    1.0083    0.0000 C   0  0  0  0  0  0  0  0  0  0  0  0
   -1.9958    0.2333    0.0000 C   0  0  0  0  0  0  0  0  0  0  0  0
    0.9042    2.0833    0.0000 O   0  0  0  0  0  0  0  0  0  0  0  0
    3.0792    2.0833    0.0000 O   0  0  0  0  0  0  0  0  0  0  0  0
   -1.9958   -1.2917    0.0000 C   0  0  0  0  0  0  0  0  0  0  0  0
    3.3250    0.2208    0.0000 Cl  0  0  0  0  0  0  0  0  0  0  0  0
    0.6667   -1.3042    0.0000 C   0  0  0  0  0  0  0  0  0  0  0  0
   -0.6625   -2.0750    0.0000 C   0  0  0  0  0  0  0  0  0  0  0  0
   -3.3333    1.0083    0.0000 Cl  0  0  0  0  0  0  0  0  0  0  0  0
   -3.3333   -2.0667    0.0000 F   0  0  0  0  0  0  0  0  0  0  0  0
  2  1  1  0  0  0  0
  3  2  2  0  0  0  0
  4  3  1  0  0  0  0
  4  7  2  0  0  0  0
  5  1  2  0  0  0  0
  6  1  2  0  0  0  0
  7 10  1  0  0  0  0
  8  1  1  0  0  0  0
  9  2  1  0  0  0  0
 10  9  2  0  0  0  0
 11  4  1  0  0  0  0
 12  7  1  0  0  0  0
M  END
>  <MOLFORMULA>
C6 H3 Cl2 F O2 S

>  <MOLWEIGHT>
2.290577000000000e+002

>  <code>
BTB05535

>  <appearance>
liquid

>  <purity>
97%

>  <product_name>
3-chloro-4-fluorobenzene-1-sulfonyl chloride

>  <cansmi>
Fc1ccc(cc1Cl)S(=O)(=O)Cl

>  <HBA2>
2

>  <HBD>
0

>  <logP>
3.4874

>  <TPSA>
42.52

>  <MW>
229.056

$$$$

 OpenBabel02131620232D

 12 12  0  0  0  0  0  0  0  0999 V2000
    2.0000    1.7708    0.0000 S   0  0  0  0  0  0  0  0  0  0  0  0
    0.6667    1.0083    0.0000 C   0  0  0  0  0  0  0  0  0  0  0  0
   -0.6625    1.7708    0.0000 C   0  0  0  0  0  0  0  0  0  0  0  0
    0.6667   -0.5375    0.0000 C   0  0  0  0  0  0  0  0  0  0  0  0
    0.9125    2.8500    0.0000 O   0  0  0  0  0  0  0  0  0  0  0  0
    3.0792    2.8500    0.0000 O   0  0  0  0  0  0  0  0  0  0  0  0
   -1.9958    1.0083    0.0000 C   0  0  0  0  0  0  0  0  0  0  0  0
   -0.6625   -1.3042    0.0000 C   0  0  0  0  0  0  0  0  0  0  0  0
    3.3250    0.9875    0.0000 Cl  0  0  0  0  0  0  0  0  0  0  0  0
   -1.9958   -0.5292    0.0000 C   0  0  0  0  0  0  0  0  0  0  0  0
   -3.3333    1.7750    0.0000 Cl  0  0  0  0  0  0  0  0  0  0  0  0
   -0.6708   -2.8417    0.0000 Cl  0  0  0  0  0  0  0  0  0  0  0  0
  2  1  1  0  0  0  0
  3  2  2  0  0  0  0
  4  2  1  0  0  0  0
  5  1  2  0  0  0  0
  6  1  2  0  0  0  0
  7  3  1  0  0  0  0
  7 10  2  0  0  0  0
  8  4  2  0  0  0  0
  9  1  1  0  0  0  0
 10  8  1  0  0  0  0
 11  7  1  0  0  0  0
 12  8  1  0  0  0  0
M  END
>  <MOLFORMULA>
C6 H3 Cl3 O2 S

>  <MOLWEIGHT>
2.455127000000000e+002

>  <code>
BTB05586

>  <appearance>
solid

>  <purity>
95%

>  <product_name>
3,5-dichlorobenzene-1-sulfonyl chloride

>  <cansmi>
Clc1cc(Cl)cc(c1)S(=O)(=O)Cl

>  <HBA2>
2

>  <HBD>
0

>  <logP>
4.0017

>  <TPSA>
42.52

>  <MW>
245.511

$$$$

 OpenBabel02131620232D

 14 14  0  0  0  0  0  0  0  0999 V2000
    2.7542    0.7458    0.0000 S   0  0  0  0  0  0  0  0  0  0  0  0
   -2.5833    0.7458    0.0000 C   0  0  0  0  0  0  0  0  0  0  0  0
    1.4167   -0.0167    0.0000 C   0  0  0  0  0  0  0  0  0  0  0  0
   -1.2458   -0.0167    0.0000 C   0  0  0  0  0  0  0  0  0  0  0  0
    0.0875    0.7500    0.0000 C   0  0  0  0  0  0  0  0  0  0  0  0
    1.6625    1.8333    0.0000 O   0  0  0  0  0  0  0  0  0  0  0  0
    3.8292    1.8333    0.0000 O   0  0  0  0  0  0  0  0  0  0  0  0
    4.0750   -0.0292    0.0000 Cl  0  0  0  0  0  0  0  0  0  0  0  0
   -2.8333    2.3333    0.0000 F   0  0  0  0  0  0  0  0  0  0  0  0
   -4.0833    0.1750    0.0000 F   0  0  0  0  0  0  0  0  0  0  0  0
   -3.7875    1.4458    0.0000 F   0  0  0  0  0  0  0  0  0  0  0  0
    1.4167   -1.5625    0.0000 C   0  0  0  0  0  0  0  0  0  0  0  0
   -1.2458   -1.5500    0.0000 C   0  0  0  0  0  0  0  0  0  0  0  0
    0.0875   -2.3292    0.0000 C   0  0  0  0  0  0  0  0  0  0  0  0
  2  4  1  0  0  0  0
  3  1  1  0  0  0  0
  4  5  1  0  0  0  0
  4 13  2  0  0  0  0
  5  3  2  0  0  0  0
  6  1  2  0  0  0  0
  7  1  2  0  0  0  0
  8  1  1  0  0  0  0
  9  2  1  0  0  0  0
 10  2  1  0  0  0  0
 11  2  1  0  0  0  0
 12  3  1  0  0  0  0
 13 14  1  0  0  0  0
 14 12  2  0  0  0  0
M  END
>  <MOLFORMULA>
C7 H4 Cl F3 O2 S

>  <MOLWEIGHT>
2.446196000000000e+002

>  <code>
BTB06459

>  <appearance>
liquid

>  <purity>
97%

>  <product_name>
3-(trifluoromethyl)benzene-1-sulfonyl chloride

>  <cansmi>
FC(c1cccc(c1)S(=O)(=O)Cl)(F)F

>  <HBA2>
2

>  <HBD>
0

>  <logP>
3.7137

>  <TPSA>
42.52

>  <MW>
244.619

$$$$

 OpenBabel02131620232D

 11 11  0  0  0  0  0  0  0  0999 V2000
    2.0000    1.0000    0.0000 S   0  0  0  0  0  0  0  0  0  0  0  0
    0.6667    0.2333    0.0000 C   0  0  0  0  0  0  0  0  0  0  0  0
    0.9042    2.0833    0.0000 O   0  0  0  0  0  0  0  0  0  0  0  0
    3.0792    2.0833    0.0000 O   0  0  0  0  0  0  0  0  0  0  0  0
   -0.6625    1.0083    0.0000 C   0  0  0  0  0  0  0  0  0  0  0  0
    3.3250    0.2208    0.0000 Cl  0  0  0  0  0  0  0  0  0  0  0  0
   -1.9958    0.2333    0.0000 C   0  0  0  0  0  0  0  0  0  0  0  0
   -3.3333    0.9958    0.0000 Cl  0  0  0  0  0  0  0  0  0  0  0  0
    0.6667   -1.3042    0.0000 C   0  0  0  0  0  0  0  0  0  0  0  0
   -0.6625   -2.0750    0.0000 C   0  0  0  0  0  0  0  0  0  0  0  0
   -1.9958   -1.2917    0.0000 C   0  0  0  0  0  0  0  0  0  0  0  0
  2  1  1  0  0  0  0
  3  1  2  0  0  0  0
  4  1  2  0  0  0  0
  5  2  2  0  0  0  0
  6  1  1  0  0  0  0
  7  5  1  0  0  0  0
  7 11  2  0  0  0  0
  8  7  1  0  0  0  0
  9  2  1  0  0  0  0
 10  9  2  0  0  0  0
 11 10  1  0  0  0  0
M  END
>  <MOLFORMULA>
C6 H4 Cl2 O2 S

>  <MOLWEIGHT>
2.110676000000000e+002

>  <code>
BTB06460

>  <appearance>
solid

>  <purity>
97%

>  <product_name>
3-chlorobenzene-1-sulfonyl chloride

>  <cansmi>
Clc1cccc(c1)S(=O)(=O)Cl

>  <HBA2>
2

>  <HBD>
0

>  <logP>
3.3483

>  <TPSA>
42.52

>  <MW>
211.066

$$$$

 OpenBabel02131620232D

 15 15  0  0  0  0  0  0  0  0999 V2000
    4.6625    0.9958    0.0000 S   0  0  0  0  0  0  0  0  0  0  0  0
    3.3417    0.2208    0.0000 C   0  0  0  0  0  0  0  0  0  0  0  0
    5.7417    2.0958    0.0000 O   0  0  0  0  0  0  0  0  0  0  0  0
    3.5542    2.0958    0.0000 O   0  0  0  0  0  0  0  0  0  0  0  0
    5.9917    0.2250    0.0000 Cl  0  0  0  0  0  0  0  0  0  0  0  0
    3.3417   -1.3125    0.0000 C   0  0  0  0  0  0  0  0  0  0  0  0
    2.0292    0.9833    0.0000 C   0  0  0  0  0  0  0  0  0  0  0  0
    0.7125    0.2208    0.0000 C   0  0  0  0  0  0  0  0  0  0  0  0
    2.0292   -2.0625    0.0000 C   0  0  0  0  0  0  0  0  0  0  0  0
    0.7125   -1.3125    0.0000 C   0  0  0  0  0  0  0  0  0  0  0  0
   -0.6250   -2.0875    0.0000 C   0  0  0  0  0  0  0  0  0  0  0  0
   -1.9708   -1.3167    0.0000 C   0  0  0  0  0  0  0  0  0  0  0  0
   -4.6583   -1.3167    0.0000 C   0  0  0  0  0  0  0  0  0  0  0  0
   -3.3208   -2.0917    0.0000 C   0  0  0  0  0  0  0  0  0  0  0  0
   -6.0000   -2.0917    0.0000 C   0  0  0  0  0  0  0  0  0  0  0  0
  2  1  1  0  0  0  0
  3  1  2  0  0  0  0
  4  1  2  0  0  0  0
  5  1  1  0  0  0  0
  6  2  1  0  0  0  0
  7  2  2  0  0  0  0
  8  7  1  0  0  0  0
  9  6  2  0  0  0  0
  9 10  1  0  0  0  0
 10  8  2  0  0  0  0
 11 10  1  0  0  0  0
 12 11  1  0  0  0  0
 13 14  1  0  0  0  0
 14 12  1  0  0  0  0
 15 13  1  0  0  0  0
M  END
>  <MOLFORMULA>
C11 H15 Cl O2 S

>  <MOLWEIGHT>
2.467565000000000e+002

>  <code>
BTB09810

>  <appearance>
solid

>  <purity>
97%

>  <product_name>
4-pentylbenzene-1-sulfonyl chloride

>  <cansmi>
CCCCCc1ccc(cc1)S(=O)(=O)Cl

>  <HBA2>
2

>  <HBD>
0

>  <logP>
4.4276

>  <TPSA>
42.52

>  <MW>
246.754

$$$$

 OpenBabel02131620232D

 12 12  0  0  0  0  0  0  0  0999 V2000
    2.6542    0.9958    0.0000 S   0  0  0  0  0  0  0  0  0  0  0  0
    1.3375    0.2208    0.0000 C   0  0  0  0  0  0  0  0  0  0  0  0
    3.7500    2.1083    0.0000 O   0  0  0  0  0  0  0  0  0  0  0  0
    1.5500    2.1083    0.0000 O   0  0  0  0  0  0  0  0  0  0  0  0
    4.0000    0.2250    0.0000 Cl  0  0  0  0  0  0  0  0  0  0  0  0
    1.3375   -1.3167    0.0000 C   0  0  0  0  0  0  0  0  0  0  0  0
    0.0125    0.9833    0.0000 C   0  0  0  0  0  0  0  0  0  0  0  0
   -1.3083    0.2208    0.0000 C   0  0  0  0  0  0  0  0  0  0  0  0
    0.0125   -2.0792    0.0000 C   0  0  0  0  0  0  0  0  0  0  0  0
   -1.3083   -1.3167    0.0000 C   0  0  0  0  0  0  0  0  0  0  0  0
   -2.6583   -2.1000    0.0000 C   0  0  0  0  0  0  0  0  0  0  0  0
   -4.0083   -1.3167    0.0000 C   0  0  0  0  0  0  0  0  0  0  0  0
  2  1  1  0  0  0  0
  3  1  2  0  0  0  0
  4  1  2  0  0  0  0
  5  1  1  0  0  0  0
  6  2  1  0  0  0  0
  7  2  2  0  0  0  0
  8  7  1  0  0  0  0
  9  6  2  0  0  0  0
  9 10  1  0  0  0  0
 10  8  2  0  0  0  0
 11 10  1  0  0  0  0
 12 11  1  0  0  0  0
M  END
>  <MOLFORMULA>
C8 H9 Cl O2 S

>  <MOLWEIGHT>
2.046761000000000e+002

>  <code>
BTB10241

>  <appearance>
liquid

>  <purity>
97%

>  <product_name>
4-ethylbenzene-1-sulfonyl chloride

>  <cansmi>
CCc1ccc(cc1)S(=O)(=O)Cl

>  <HBA2>
2

>  <HBD>
0

>  <logP>
3.2573

>  <TPSA>
42.52

>  <MW>
204.674

$$$$

 OpenBabel02131620232D

 14 14  0  0  0  0  0  0  0  0999 V2000
    5.7417   -0.2000    0.0000 S   0  0  0  0  0  0  0  0  0  0  0  0
    5.2250   -0.5125    0.0000 C   0  0  0  0  0  0  0  0  0  0  0  0
    6.2667    0.1000    0.0000 O   0  0  0  0  0  0  0  0  0  0  0  0
    5.2167    0.1000    0.0000 O   0  0  0  0  0  0  0  0  0  0  0  0
    6.2667   -0.5042    0.0000 Cl  0  0  0  0  0  0  0  0  0  0  0  0
    5.2250   -1.1125    0.0000 C   0  0  0  0  0  0  0  0  0  0  0  0
    4.7042   -0.2125    0.0000 C   0  0  0  0  0  0  0  0  0  0  0  0
    4.1875   -0.5125    0.0000 C   0  0  0  0  0  0  0  0  0  0  0  0
    4.7042   -1.4125    0.0000 C   0  0  0  0  0  0  0  0  0  0  0  0
    4.1875   -1.1125    0.0000 C   0  0  0  0  0  0  0  0  0  0  0  0
    3.6542   -1.4167    0.0000 C   0  0  0  0  0  0  0  0  0  0  0  0
    3.1292   -1.1167    0.0000 C   0  0  0  0  0  0  0  0  0  0  0  0
    2.6000   -1.4167    0.0000 C   0  0  0  0  0  0  0  0  0  0  0  0
    2.0667   -1.1167    0.0000 C   0  0  0  0  0  0  0  0  0  0  0  0
  2  1  1  0  0  0  0
  3  1  2  0  0  0  0
  4  1  2  0  0  0  0
  5  1  1  0  0  0  0
  6  2  1  0  0  0  0
  7  2  2  0  0  0  0
  8  7  1  0  0  0  0
  9  6  2  0  0  0  0
  9 10  1  0  0  0  0
 10  8  2  0  0  0  0
 11 10  1  0  0  0  0
 12 11  1  0  0  0  0
 13 12  1  0  0  0  0
 14 13  1  0  0  0  0
M  END
>  <MOLFORMULA>
C10 H13 Cl O2 S

>  <MOLWEIGHT>
2.327297000000000e+002

>  <code>
BTB10243

>  <appearance>
liquid

>  <purity>
97%

>  <product_name>
4-butylbenzene-1-sulfonyl chloride

>  <cansmi>
CCCCc1ccc(cc1)S(=O)(=O)Cl

>  <HBA2>
2

>  <HBD>
0

>  <logP>
4.0375

>  <TPSA>
42.52

>  <MW>
232.727

$$$$

 OpenBabel02131620232D

 10 10  0  0  0  0  0  0  0  0999 V2000
    0.5875  -11.1875    0.0000 O   0  0  0  0  0  0  0  0  0  0  0  0
    1.2568  -10.7050    0.0000 C   0  0  0  0  0  0  0  0  0  0  0  0
    1.0000   -9.9167    0.0000 C   0  0  0  0  0  0  0  0  0  0  0  0
    0.1750   -9.9167    0.0000 C   0  0  0  0  0  0  0  0  0  0  0  0
   -0.0818  -10.7050    0.0000 N   0  0  0  0  0  0  0  0  0  0  0  0
    1.4847   -9.2491    0.0000 S   0  0  0  0  0  0  0  0  0  0  0  0
    2.0410  -10.9611    0.0000 C   0  0  0  0  0  0  0  0  0  0  0  0
    2.3052   -9.3350    0.0000 Cl  0  0  0  0  0  0  0  0  0  0  0  0
    0.7667   -8.8333    0.0000 O   0  0  0  0  0  0  0  0  0  0  0  0
    1.8917   -8.5292    0.0000 O   0  0  0  0  0  0  0  0  0  0  0  0
  1  2  1  0  0  0  0
  2  7  1  0  0  0  0
  2  3  2  0  0  0  0
  3  6  1  0  0  0  0
  3  4  1  0  0  0  0
  4  5  2  0  0  0  0
  5  1  1  0  0  0  0
  6  8  1  0  0  0  0
  6  9  2  0  0  0  0
  6 10  2  0  0  0  0
M  END
>  <MOLFORMULA>
C4 H4 Cl N O3 S

>  <MOLWEIGHT>
1.815986000000000e+002

>  <code>
CC00271

>  <appearance>
liquid

>  <purity>
95%

>  <product_name>
5-methyl-4-isoxazolesulfonyl chloride

>  <cansmi>
Cc1oncc1S(=O)(=O)Cl

>  <HBA2>
4

>  <HBD>
0

>  <logP>
1.9913

>  <TPSA>
68.55

>  <MW>
181.597

$$$$

 OpenBabel02131620232D

 16 17  0  0  0  0  0  0  0  0999 V2000
    5.4000   -4.1625    0.0000 O   0  0  0  0  0  0  0  0  0  0  0  0
    6.0651   -3.6800    0.0000 C   0  0  0  0  0  0  0  0  0  0  0  0
    5.8125   -2.8917    0.0000 C   0  0  0  0  0  0  0  0  0  0  0  0
    4.9875   -2.8917    0.0000 C   0  0  0  0  0  0  0  0  0  0  0  0
    4.7307   -3.6800    0.0000 N   0  0  0  0  0  0  0  0  0  0  0  0
    4.5028   -2.2283    0.0000 C   0  0  0  0  0  0  0  0  0  0  0  0
    6.8535   -3.9320    0.0000 C   0  0  0  0  0  0  0  0  0  0  0  0
    4.8391   -1.4731    0.0000 C   0  0  0  0  0  0  0  0  0  0  0  0
    4.3510   -0.8017    0.0000 C   0  0  0  0  0  0  0  0  0  0  0  0
    3.5295   -0.8915    0.0000 C   0  0  0  0  0  0  0  0  0  0  0  0
    3.1944   -1.6499    0.0000 C   0  0  0  0  0  0  0  0  0  0  0  0
    3.6804   -2.3182    0.0000 C   0  0  0  0  0  0  0  0  0  0  0  0
    6.2930   -2.2283    0.0000 S   0  0  0  0  0  0  0  0  0  0  0  0
    5.7041   -1.6375    0.0000 O   0  0  0  0  0  0  0  0  0  0  0  0
    6.8750   -1.6375    0.0000 O   0  0  0  0  0  0  0  0  0  0  0  0
    7.0875   -2.4375    0.0000 Cl  0  0  0  0  0  0  0  0  0  0  0  0
  1  2  1  0  0  0  0
  2  7  1  0  0  0  0
  2  3  2  0  0  0  0
  3  4  1  0  0  0  0
  3 13  1  0  0  0  0
  4  6  1  0  0  0  0
  4  5  2  0  0  0  0
  5  1  1  0  0  0  0
  6  8  2  0  0  0  0
  8  9  1  0  0  0  0
  9 10  2  0  0  0  0
 10 11  1  0  0  0  0
 11 12  2  0  0  0  0
 12  6  1  0  0  0  0
 13 14  2  0  0  0  0
 13 15  2  0  0  0  0
 13 16  1  0  0  0  0
M  END
>  <MOLFORMULA>
C10 H8 Cl N O3 S

>  <MOLWEIGHT>
2.576962000000000e+002

>  <code>
CC00503

>  <appearance>
Solid

>  <purity>
90%

>  <product_name>
5-methyl-3-phenyl-4-isoxazolesulfonyl chloride

>  <cansmi>
Cc1onc(c1S(=O)(=O)Cl)c1ccccc1

>  <HBA2>
4

>  <HBD>
0

>  <logP>
3.6583

>  <TPSA>
68.55

>  <MW>
257.693

$$$$

 OpenBabel02131620232D

 11 11  0  0  0  0  0  0  0  0999 V2000
   -1.4542   -3.1416    0.0000 O   0  0  0  0  0  0  0  0  0  0  0  0
   -0.7849   -2.6592    0.0000 C   0  0  0  0  0  0  0  0  0  0  0  0
   -1.0417   -1.8709    0.0000 C   0  0  0  0  0  0  0  0  0  0  0  0
   -1.8667   -1.8709    0.0000 C   0  0  0  0  0  0  0  0  0  0  0  0
   -2.1235   -2.6592    0.0000 N   0  0  0  0  0  0  0  0  0  0  0  0
   -2.3513   -1.2032    0.0000 C   0  0  0  0  0  0  0  0  0  0  0  0
   -0.0006   -2.9153    0.0000 C   0  0  0  0  0  0  0  0  0  0  0  0
   -0.5570   -1.2032    0.0000 S   0  0  0  0  0  0  0  0  0  0  0  0
    0.2635   -1.2892    0.0000 Cl  0  0  0  0  0  0  0  0  0  0  0  0
   -1.1458   -0.6125    0.0000 O   0  0  0  0  0  0  0  0  0  0  0  0
   -0.1500   -0.4833    0.0000 O   0  0  0  0  0  0  0  0  0  0  0  0
  1  2  1  0  0  0  0
  2  7  1  0  0  0  0
  2  3  2  0  0  0  0
  3  8  1  0  0  0  0
  3  4  1  0  0  0  0
  4  6  1  0  0  0  0
  4  5  2  0  0  0  0
  5  1  1  0  0  0  0
  8  9  1  0  0  0  0
  8 10  2  0  0  0  0
  8 11  2  0  0  0  0
M  END
>  <MOLFORMULA>
C5 H6 Cl N O3 S

>  <MOLWEIGHT>
1.956254000000000e+002

>  <code>
CC00603

>  <appearance>
solid

>  <purity>
97%

>  <product_name>
3,5-dimethylisoxazole-4-sulfonyl chloride

>  <cansmi>
Cc1onc(c1S(=O)(=O)Cl)C

>  <HBA2>
4

>  <HBD>
0

>  <logP>
2.2997

>  <TPSA>
68.55

>  <MW>
195.624

$$$$

 OpenBabel02131620232D

 14 14  0  0  0  0  0  0  0  0999 V2000
   -0.8417   -2.4208    0.0000 O   0  0  0  0  0  0  0  0  0  0  0  0
   -0.1724   -1.9384    0.0000 C   0  0  0  0  0  0  0  0  0  0  0  0
   -0.4292   -1.1542    0.0000 C   0  0  0  0  0  0  0  0  0  0  0  0
   -1.2500   -1.1542    0.0000 C   0  0  0  0  0  0  0  0  0  0  0  0
   -1.5068   -1.9384    0.0000 C   0  0  0  0  0  0  0  0  0  0  0  0
   -2.2869   -2.1945    0.0000 C   0  0  0  0  0  0  0  0  0  0  0  0
    0.6077   -2.1945    0.0000 C   0  0  0  0  0  0  0  0  0  0  0  0
    0.0513   -0.4907    0.0000 S   0  0  0  0  0  0  0  0  0  0  0  0
    1.3959   -2.4042    0.0000 F   0  0  0  0  0  0  0  0  0  0  0  0
    1.3959   -1.7917    0.0000 F   0  0  0  0  0  0  0  0  0  0  0  0
    1.0084   -2.9000    0.0000 F   0  0  0  0  0  0  0  0  0  0  0  0
   -0.6667   -0.0750    0.0000 O   0  0  0  0  0  0  0  0  0  0  0  0
    0.6333    0.1000    0.0000 O   0  0  0  0  0  0  0  0  0  0  0  0
    0.7625   -0.9000    0.0000 Cl  0  0  0  0  0  0  0  0  0  0  0  0
  1  2  1  0  0  0  0
  2  3  2  0  0  0  0
  2  7  1  0  0  0  0
  3  8  1  0  0  0  0
  3  4  1  0  0  0  0
  4  5  2  0  0  0  0
  5  1  1  0  0  0  0
  5  6  1  0  0  0  0
  7  9  1  0  0  0  0
  7 10  1  0  0  0  0
  7 11  1  0  0  0  0
  8 12  2  0  0  0  0
  8 13  2  0  0  0  0
  8 14  1  0  0  0  0
M  END
>  <MOLFORMULA>
C6 H4 Cl F3 O3 S

>  <MOLWEIGHT>
2.486076000000000e+002

>  <code>
CC00703

>  <appearance>
liquid

>  <purity>
97%

>  <product_name>
5-methyl-2-(trifluoromethyl)-3-furansulfonyl chloride

>  <cansmi>
Cc1oc(c(c1)S(=O)(=O)Cl)C(F)(F)F

>  <HBA2>
3

>  <HBD>
0

>  <logP>
3.6151

>  <TPSA>
55.66

>  <MW>
248.607

$$$$

 OpenBabel02131620232D

 13 14  0  0  0  0  0  0  0  0999 V2000
    6.3292  -13.6042    0.0000 S   0  0  0  0  0  0  0  0  0  0  0  0
    5.6500  -14.0000    0.0000 C   0  0  0  0  0  0  0  0  0  0  0  0
    4.9667  -13.6084    0.0000 C   0  0  0  0  0  0  0  0  0  0  0  0
    6.8792  -13.0458    0.0000 O   0  0  0  0  0  0  0  0  0  0  0  0
    5.6375  -13.2083    0.0000 O   0  0  0  0  0  0  0  0  0  0  0  0
    7.0125  -13.9834    0.0000 Cl  0  0  0  0  0  0  0  0  0  0  0  0
    5.6500  -14.7875    0.0000 C   0  0  0  0  0  0  0  0  0  0  0  0
    4.9667  -15.1834    0.0000 C   0  0  0  0  0  0  0  0  0  0  0  0
    4.2873  -14.7875    0.0000 C   0  0  0  0  0  0  0  0  0  0  0  0
    4.2959  -14.0000    0.0000 C   0  0  0  0  0  0  0  0  0  0  0  0
    3.5496  -13.7485    0.0000 C   0  0  0  0  0  0  0  0  0  0  0  0
    3.0797  -14.3806    0.0000 C   0  0  0  0  0  0  0  0  0  0  0  0
    3.5357  -15.0226    0.0000 O   0  0  0  0  0  0  0  0  0  0  0  0
  2  1  1  0  0  0  0
  3  2  2  0  0  0  0
  4  1  2  0  0  0  0
  5  1  2  0  0  0  0
  6  1  1  0  0  0  0
  7  2  1  0  0  0  0
  8  7  2  0  0  0  0
  9  8  1  0  0  0  0
  9 10  2  0  0  0  0
 10  3  1  0  0  0  0
 10 11  1  0  0  0  0
 11 12  1  0  0  0  0
 12 13  1  0  0  0  0
 13  9  1  0  0  0  0
M  END
>  <MOLFORMULA>
C8 H7 Cl O3 S

>  <MOLWEIGHT>
2.186593000000000e+002

>  <code>
CC00803

>  <appearance>
solid

>  <purity>
97%

>  <product_name>
2,3-dihydro-1-benzofuran-5-sulfonyl chloride

>  <cansmi>
ClS(=O)(=O)c1ccc2c(c1)CCO2

>  <HBA2>
3

>  <HBD>
0

>  <logP>
2.6298

>  <TPSA>
51.75

>  <MW>
218.657

$$$$

 OpenBabel02131620232D

 11 11  0  0  0  0  0  0  0  0999 V2000
   -1.1333   -0.7917    0.0000 O   0  0  0  0  0  0  0  0  0  0  0  0
   -0.4640   -0.3092    0.0000 C   0  0  0  0  0  0  0  0  0  0  0  0
   -0.7208    0.4791    0.0000 C   0  0  0  0  0  0  0  0  0  0  0  0
   -1.5458    0.4791    0.0000 C   0  0  0  0  0  0  0  0  0  0  0  0
   -1.8026   -0.3092    0.0000 C   0  0  0  0  0  0  0  0  0  0  0  0
   -2.5868   -0.5653    0.0000 C   0  0  0  0  0  0  0  0  0  0  0  0
    0.3202   -0.5653    0.0000 C   0  0  0  0  0  0  0  0  0  0  0  0
   -0.2361    1.1467    0.0000 S   0  0  0  0  0  0  0  0  0  0  0  0
    0.5844    1.0608    0.0000 Cl  0  0  0  0  0  0  0  0  0  0  0  0
   -0.9542    1.5625    0.0000 O   0  0  0  0  0  0  0  0  0  0  0  0
    0.1708    1.8667    0.0000 O   0  0  0  0  0  0  0  0  0  0  0  0
  1  2  1  0  0  0  0
  2  7  1  0  0  0  0
  2  3  2  0  0  0  0
  3  8  1  0  0  0  0
  3  4  1  0  0  0  0
  4  5  2  0  0  0  0
  5  6  1  0  0  0  0
  5  1  1  0  0  0  0
  8  9  1  0  0  0  0
  8 10  2  0  0  0  0
  8 11  2  0  0  0  0
M  END
>  <MOLFORMULA>
C6 H7 Cl O3 S

>  <MOLWEIGHT>
1.946373000000000e+002

>  <code>
CC01103

>  <appearance>
liquid

>  <purity>
97%

>  <product_name>
2,5-dimethyl-3-furansulfonyl chloride

>  <cansmi>
Cc1oc(c(c1)S(=O)(=O)Cl)C

>  <HBA2>
3

>  <HBD>
0

>  <logP>
2.9047

>  <TPSA>
55.66

>  <MW>
194.636

$$$$

 OpenBabel02131620232D

 14 15  0  0  0  0  0  0  0  0999 V2000
    9.5417  -10.5792    0.0000 S   0  0  0  0  0  0  0  0  0  0  0  0
    9.0292  -10.8875    0.0000 C   0  0  0  0  0  0  0  0  0  0  0  0
    8.5042  -10.5875    0.0000 C   0  0  0  0  0  0  0  0  0  0  0  0
    7.9917  -10.8917    0.0000 C   0  0  0  0  0  0  0  0  0  0  0  0
    9.9667  -10.1542    0.0000 O   0  0  0  0  0  0  0  0  0  0  0  0
    9.0250  -10.2792    0.0000 O   0  0  0  0  0  0  0  0  0  0  0  0
    7.9917  -11.4917    0.0000 C   0  0  0  0  0  0  0  0  0  0  0  0
   10.0667  -10.8792    0.0000 Cl  0  0  0  0  0  0  0  0  0  0  0  0
    7.4792  -10.5917    0.0000 O   0  0  0  0  0  0  0  0  0  0  0  0
    7.4750  -11.7917    0.0000 O   0  0  0  0  0  0  0  0  0  0  0  0
    9.0292  -11.4917    0.0000 C   0  0  0  0  0  0  0  0  0  0  0  0
    8.5042  -11.7917    0.0000 C   0  0  0  0  0  0  0  0  0  0  0  0
    6.9542  -10.8875    0.0000 C   0  0  0  0  0  0  0  0  0  0  0  0
    6.9542  -11.4875    0.0000 C   0  0  0  0  0  0  0  0  0  0  0  0
  2  1  1  0  0  0  0
  3  2  2  0  0  0  0
  4  3  1  0  0  0  0
  4  7  2  0  0  0  0
  5  1  2  0  0  0  0
  6  1  2  0  0  0  0
  7 12  1  0  0  0  0
  8  1  1  0  0  0  0
  9  4  1  0  0  0  0
 10  7  1  0  0  0  0
 11  2  1  0  0  0  0
 12 11  2  0  0  0  0
 13  9  1  0  0  0  0
 14 10  1  0  0  0  0
 14 13  1  0  0  0  0
M  END
>  <MOLFORMULA>
C8 H7 Cl O4 S

>  <MOLWEIGHT>
2.346583000000000e+002

>  <code>
CC01303

>  <appearance>
solid

>  <purity>
97%

>  <product_name>
2,3-dihydro-1,4-benzodioxine-6-sulfonyl chloride

>  <cansmi>
ClS(=O)(=O)c1ccc2c(c1)OCCO2

>  <HBA2>
4

>  <HBD>
0

>  <logP>
2.4661

>  <TPSA>
60.98

>  <MW>
234.657

$$$$

 OpenBabel02131620232D

 13 14  0  0  0  0  0  0  0  0999 V2000
    5.7431   -3.2084    0.0000 C   0  0  0  0  0  0  0  0  0  0  0  0
    5.7443   -2.4185    0.0000 C   0  0  0  0  0  0  0  0  0  0  0  0
    5.0628   -2.0223    0.0000 C   0  0  0  0  0  0  0  0  0  0  0  0
    5.0646   -3.6003    0.0000 C   0  0  0  0  0  0  0  0  0  0  0  0
    6.4269   -2.0234    0.0000 S   0  0  0  0  0  0  0  0  0  0  0  0
    7.1085   -2.4201    0.0000 Cl  0  0  0  0  0  0  0  0  0  0  0  0
    7.1125   -1.6375    0.0000 O   0  0  0  0  0  0  0  0  0  0  0  0
    5.7500   -1.6334    0.0000 O   0  0  0  0  0  0  0  0  0  0  0  0
    4.3787   -3.2155    0.0000 C   0  0  0  0  0  0  0  0  0  0  0  0
    4.3891   -2.4245    0.0000 C   0  0  0  0  0  0  0  0  0  0  0  0
    3.6400   -2.1701    0.0000 O   0  0  0  0  0  0  0  0  0  0  0  0
    3.1665   -2.8040    0.0000 C   0  0  0  0  0  0  0  0  0  0  0  0
    3.6231   -3.4500    0.0000 O   0  0  0  0  0  0  0  0  0  0  0  0
  1  2  2  0  0  0  0
  2  5  1  0  0  0  0
  2  3  1  0  0  0  0
  3 10  2  0  0  0  0
  4  1  1  0  0  0  0
  5  6  1  0  0  0  0
  5  7  2  0  0  0  0
  5  8  2  0  0  0  0
  9 10  1  0  0  0  0
  9  4  2  0  0  0  0
 10 11  1  0  0  0  0
 11 12  1  0  0  0  0
 12 13  1  0  0  0  0
 13  9  1  0  0  0  0
M  END
>  <MOLFORMULA>
C7 H5 Cl O4 S

>  <MOLWEIGHT>
2.206315000000000e+002

>  <code>
CC01603

>  <appearance>
solid

>  <purity>
95%

>  <product_name>
1,3-benzodioxole-5-sulfonyl chloride

>  <cansmi>
ClS(=O)(=O)c1ccc2c(c1)OCO2

>  <HBA2>
4

>  <HBD>
0

>  <logP>
2.4236

>  <TPSA>
60.98

>  <MW>
220.63

$$$$

 OpenBabel02131620232D

  9  9  0  0  0  0  0  0  0  0999 V2000
   -1.1458   -0.4167    0.0000 O   0  0  0  0  0  0  0  0  0  0  0  0
   -0.4765    0.0658    0.0000 C   0  0  0  0  0  0  0  0  0  0  0  0
   -0.7333    0.8541    0.0000 C   0  0  0  0  0  0  0  0  0  0  0  0
   -1.5583    0.8541    0.0000 C   0  0  0  0  0  0  0  0  0  0  0  0
   -1.8151    0.0658    0.0000 C   0  0  0  0  0  0  0  0  0  0  0  0
    0.3077   -0.1903    0.0000 S   0  0  0  0  0  0  0  0  0  0  0  0
    0.9216    0.3608    0.0000 Cl  0  0  0  0  0  0  0  0  0  0  0  0
   -0.2833   -0.7709    0.0000 O   0  0  0  0  0  0  0  0  0  0  0  0
    1.0167   -0.6000    0.0000 O   0  0  0  0  0  0  0  0  0  0  0  0
  1  2  1  0  0  0  0
  2  3  2  0  0  0  0
  2  6  1  0  0  0  0
  3  4  1  0  0  0  0
  4  5  2  0  0  0  0
  5  1  1  0  0  0  0
  6  7  1  0  0  0  0
  6  8  2  0  0  0  0
  6  9  2  0  0  0  0
M  END
>  <MOLFORMULA>
C4 H3 Cl O3 S

>  <MOLWEIGHT>
1.665837000000000e+002

>  <code>
CC02003

>  <appearance>
Liquid

>  <purity>
97%

>  <product_name>
furan-2-sulfonyl chloride

>  <cansmi>
ClS(=O)(=O)c1ccco1

>  <HBA2>
3

>  <HBD>
0

>  <logP>
2.2879

>  <TPSA>
55.66

>  <MW>
166.583

$$$$

 OpenBabel02131620232D

  9  9  0  0  0  0  0  0  0  0999 V2000
    4.5292   -3.8417    0.0000 O   0  0  0  0  0  0  0  0  0  0  0  0
    5.1985   -3.3592    0.0000 C   0  0  0  0  0  0  0  0  0  0  0  0
    4.9417   -2.5709    0.0000 C   0  0  0  0  0  0  0  0  0  0  0  0
    4.1167   -2.5709    0.0000 C   0  0  0  0  0  0  0  0  0  0  0  0
    3.8599   -3.3592    0.0000 C   0  0  0  0  0  0  0  0  0  0  0  0
    5.4264   -1.9033    0.0000 S   0  0  0  0  0  0  0  0  0  0  0  0
    6.2469   -1.9892    0.0000 Cl  0  0  0  0  0  0  0  0  0  0  0  0
    4.7083   -1.4875    0.0000 O   0  0  0  0  0  0  0  0  0  0  0  0
    5.8333   -1.1833    0.0000 O   0  0  0  0  0  0  0  0  0  0  0  0
  1  2  1  0  0  0  0
  2  3  2  0  0  0  0
  3  6  1  0  0  0  0
  3  4  1  0  0  0  0
  4  5  2  0  0  0  0
  5  1  1  0  0  0  0
  6  7  1  0  0  0  0
  6  8  2  0  0  0  0
  6  9  2  0  0  0  0
M  END
>  <MOLFORMULA>
C4 H3 Cl O3 S

>  <MOLWEIGHT>
1.665837000000000e+002

>  <code>
CC02103

>  <appearance>
Liquid

>  <purity>
97%

>  <product_name>
furan-3-sulfonyl chloride

>  <cansmi>
ClS(=O)(=O)c1cocc1

>  <HBA2>
3

>  <HBD>
0

>  <logP>
2.2879

>  <TPSA>
55.66

>  <MW>
166.583

$$$$

 OpenBabel02131620232D

 15 16  0  0  0  0  0  0  0  0999 V2000
    4.8925   -5.9588    0.0000 C   0  0  0  0  0  0  0  0  0  0  0  0
    6.2750   -6.0250    0.0000 S   0  0  0  0  0  0  0  0  0  0  0  0
    6.9484   -5.5383    0.0000 C   0  0  0  0  0  0  0  0  0  0  0  0
    6.6916   -4.7500    0.0000 C   0  0  0  0  0  0  0  0  0  0  0  0
    5.8625   -4.7500    0.0000 C   0  0  0  0  0  0  0  0  0  0  0  0
    5.6015   -5.5383    0.0000 C   0  0  0  0  0  0  0  0  0  0  0  0
    7.7458   -5.7542    0.0000 S   0  0  0  0  0  0  0  0  0  0  0  0
    8.3328   -5.1661    0.0000 Cl  0  0  0  0  0  0  0  0  0  0  0  0
    4.1745   -5.5453    0.0000 N   0  0  0  0  0  0  0  0  0  0  0  0
    3.4619   -5.9651    0.0000 C   0  0  0  0  0  0  0  0  0  0  0  0
    3.4675   -6.7923    0.0000 C   0  0  0  0  0  0  0  0  0  0  0  0
    4.1916   -7.1980    0.0000 C   0  0  0  0  0  0  0  0  0  0  0  0
    4.9014   -6.7800    0.0000 C   0  0  0  0  0  0  0  0  0  0  0  0
    7.3291   -6.4667    0.0000 O   0  0  0  0  0  0  0  0  0  0  0  0
    8.4583   -6.1667    0.0000 O   0  0  0  0  0  0  0  0  0  0  0  0
  1  9  2  0  0  0  0
  1  6  1  0  0  0  0
  2  3  1  0  0  0  0
  3  7  1  0  0  0  0
  3  4  2  0  0  0  0
  4  5  1  0  0  0  0
  5  6  2  0  0  0  0
  6  2  1  0  0  0  0
  7  8  1  0  0  0  0
  7 14  2  0  0  0  0
  7 15  2  0  0  0  0
  9 10  1  0  0  0  0
 10 11  2  0  0  0  0
 11 12  1  0  0  0  0
 12 13  2  0  0  0  0
 13  1  1  0  0  0  0
M  END
>  <MOLFORMULA>
C9 H6 Cl N O2 S2

>  <MOLWEIGHT>
2.597364000000000e+002

>  <code>
CC02203

>  <appearance>
solid

>  <purity>
TECH

>  <product_name>
5-(2-pyridyl)thiophene-2-sulfonyl chloride

>  <cansmi>
ClS(=O)(=O)c1ccc(s1)c1ccccn1

>  <HBA2>
4

>  <HBD>
0

>  <logP>
3.8184

>  <TPSA>
83.65

>  <MW>
259.732

$$$$

 OpenBabel02131620232D

 10 10  0  0  0  0  0  0  0  0999 V2000
   -2.0042   -2.0458    0.0000 N   0  0  0  0  0  0  0  0  0  0  0  0
   -1.3349   -1.5634    0.0000 C   0  0  0  0  0  0  0  0  0  0  0  0
   -1.5917   -0.7751    0.0000 C   0  0  0  0  0  0  0  0  0  0  0  0
   -2.4167   -0.7751    0.0000 N   0  0  0  0  0  0  0  0  0  0  0  0
   -2.6735   -1.5634    0.0000 C   0  0  0  0  0  0  0  0  0  0  0  0
   -2.0042   -2.8708    0.0000 C   0  0  0  0  0  0  0  0  0  0  0  0
   -1.1070   -0.1074    0.0000 S   0  0  0  0  0  0  0  0  0  0  0  0
   -0.2865   -0.1934    0.0000 Cl  0  0  0  0  0  0  0  0  0  0  0  0
   -1.8250    0.3083    0.0000 O   0  0  0  0  0  0  0  0  0  0  0  0
   -0.7000    0.6125    0.0000 O   0  0  0  0  0  0  0  0  0  0  0  0
  1  6  1  0  0  0  0
  1  2  1  0  0  0  0
  2  3  2  0  0  0  0
  3  7  1  0  0  0  0
  3  4  1  0  0  0  0
  4  5  2  0  0  0  0
  5  1  1  0  0  0  0
  7  8  1  0  0  0  0
  7  9  2  0  0  0  0
  7 10  2  0  0  0  0
M  END
>  <MOLFORMULA>
C4 H5 Cl N2 O2 S

>  <MOLWEIGHT>
1.806145000000000e+002

>  <code>
CC03603

>  <appearance>
solid

>  <purity>
95%

>  <product_name>
1-methyl-1H-imidazole-4-sulfonyl chloride

>  <cansmi>
Cn1cnc(c1)S(=O)(=O)Cl

>  <HBA2>
4

>  <HBD>
0

>  <logP>
1.4284

>  <TPSA>
60.34

>  <MW>
180.613

$$$$

 OpenBabel02131620232D

 11 10  0  0  0  0  0  0  0  0999 V2000
   -2.8042   -0.6958    0.0000 Cl  0  0  0  0  0  0  0  0  0  0  0  0
   -3.2071    0.7833    0.0000 O   0  0  0  0  0  0  0  0  0  0  0  0
   -2.6875    0.4833    0.0000 S   0  0  0  0  0  0  0  0  0  0  0  0
   -2.1679    0.7833    0.0000 O   0  0  0  0  0  0  0  0  0  0  0  0
   -4.2389    0.1750    0.0000 C   0  0  0  0  0  0  0  0  0  0  0  0
   -4.2401   -0.4273    0.0000 C   0  0  0  0  0  0  0  0  0  0  0  0
   -3.7211   -0.7277    0.0000 N   0  0  0  0  0  0  0  0  0  0  0  0
   -3.2005   -0.4269    0.0000 C   0  0  0  0  0  0  0  0  0  0  0  0
   -3.2034    0.1787    0.0000 C   0  0  0  0  0  0  0  0  0  0  0  0
   -3.7229    0.4753    0.0000 C   0  0  0  0  0  0  0  0  0  0  0  0
   -2.1641    0.1836    0.0000 Cl  0  0  0  0  0  0  0  0  0  0  0  0
  2  3  2  0  0  0  0
  3  4  2  0  0  0  0
  3 11  1  0  0  0  0
  5  6  2  0  0  0  0
  6  7  1  0  0  0  0
  7  8  2  0  0  0  0
  8  9  1  0  0  0  0
  9 10  2  0  0  0  0
  9  3  1  0  0  0  0
 10  5  1  0  0  0  0
M  END
>  <MOLFORMULA>
C5 H4 Cl N O2 S . Cl H

>  <MOLWEIGHT>
2.140720000000000e+002

>  <code>
CC04103

>  <appearance>
Solid

>  <purity>
95%

>  <product_name>
pyridine-3-sulfonyl chloride hydrochloride

>  <cansmi>
ClS(=O)(=O)c1cccnc1.Cl

>  <HBA2>
3

>  <HBD>
1

>  <logP>
2.8919

>  <TPSA>
55.41

>  <MW>
214.07

$$$$

 OpenBabel02131620232D

 11 11  0  0  0  0  0  0  0  0999 V2000
   -2.4875   -0.7958    0.0000 S   0  0  0  0  0  0  0  0  0  0  0  0
   -1.8182   -0.3133    0.0000 C   0  0  0  0  0  0  0  0  0  0  0  0
   -2.0750    0.4750    0.0000 C   0  0  0  0  0  0  0  0  0  0  0  0
   -2.9000    0.4750    0.0000 N   0  0  0  0  0  0  0  0  0  0  0  0
   -3.1568   -0.3133    0.0000 C   0  0  0  0  0  0  0  0  0  0  0  0
   -3.9410   -0.5694    0.0000 C   0  0  0  0  0  0  0  0  0  0  0  0
   -1.5903    1.1426    0.0000 C   0  0  0  0  0  0  0  0  0  0  0  0
   -1.0340   -0.5694    0.0000 S   0  0  0  0  0  0  0  0  0  0  0  0
   -0.4200   -0.0183    0.0000 Cl  0  0  0  0  0  0  0  0  0  0  0  0
   -1.4542   -1.2792    0.0000 O   0  0  0  0  0  0  0  0  0  0  0  0
   -0.3250   -0.9792    0.0000 O   0  0  0  0  0  0  0  0  0  0  0  0
  1  2  1  0  0  0  0
  2  3  2  0  0  0  0
  2  8  1  0  0  0  0
  3  7  1  0  0  0  0
  3  4  1  0  0  0  0
  4  5  2  0  0  0  0
  5  6  1  0  0  0  0
  5  1  1  0  0  0  0
  8  9  1  0  0  0  0
  8 10  2  0  0  0  0
  8 11  2  0  0  0  0
M  END
>  <MOLFORMULA>
C5 H6 Cl N O2 S2

>  <MOLWEIGHT>
2.116924000000000e+002

>  <code>
CC05803

>  <appearance>
liquid

>  <purity>
97%

>  <product_name>
2,4-dimethyl-1,3-thiazole-5-sulfonyl chloride

>  <cansmi>
Cc1nc(c(s1)S(=O)(=O)Cl)C

>  <HBA2>
4

>  <HBD>
0

>  <logP>
2.7682

>  <TPSA>
83.65

>  <MW>
211.69

$$$$

 OpenBabel02131620232D

 13 14  0  0  0  0  0  0  0  0999 V2000
   -2.3711    0.9348    0.0000 C   0  0  0  0  0  0  0  0  0  0  0  0
   -1.6505    1.3482    0.0000 C   0  0  0  0  0  0  0  0  0  0  0  0
   -1.6534    2.1828    0.0000 C   0  0  0  0  0  0  0  0  0  0  0  0
   -2.3729    2.5961    0.0000 C   0  0  0  0  0  0  0  0  0  0  0  0
   -3.8780    2.4282    0.0000 N   0  0  0  0  0  0  0  0  0  0  0  0
   -4.3652    1.7619    0.0000 C   0  0  0  0  0  0  0  0  0  0  0  0
   -3.8766    1.0926    0.0000 S   0  0  0  0  0  0  0  0  0  0  0  0
   -3.0901    1.3477    0.0000 C   0  0  0  0  0  0  0  0  0  0  0  0
   -3.0909    2.1747    0.0000 C   0  0  0  0  0  0  0  0  0  0  0  0
   -0.9354    0.9368    0.0000 S   0  0  0  0  0  0  0  0  0  0  0  0
   -0.2215    1.3504    0.0000 Cl  0  0  0  0  0  0  0  0  0  0  0  0
   -1.5250    0.3542    0.0000 O   0  0  0  0  0  0  0  0  0  0  0  0
   -0.2250    0.5250    0.0000 O   0  0  0  0  0  0  0  0  0  0  0  0
  1  2  2  0  0  0  0
  2  3  1  0  0  0  0
  2 10  1  0  0  0  0
  3  4  2  0  0  0  0
  4  9  1  0  0  0  0
  5  6  2  0  0  0  0
  6  7  1  0  0  0  0
  7  8  1  0  0  0  0
  8  9  2  0  0  0  0
  8  1  1  0  0  0  0
  9  5  1  0  0  0  0
 10 11  1  0  0  0  0
 10 12  2  0  0  0  0
 10 13  2  0  0  0  0
M  END
>  <MOLFORMULA>
C7 H4 Cl N O2 S2

>  <MOLWEIGHT>
2.336986000000000e+002

>  <code>
CC05903

>  <appearance>
Solid

>  <purity>
95%

>  <product_name>
1,3-benzothiazole-6-sulfonyl chloride

>  <cansmi>
ClS(=O)(=O)c1ccc2c(c1)scn2

>  <HBA2>
4

>  <HBD>
0

>  <logP>
3.3046

>  <TPSA>
83.65

>  <MW>
233.695

$$$$

 OpenBabel02131620232D

 13 14  0  0  0  0  0  0  0  0999 V2000
    3.1243   -1.5429    0.0000 C   0  0  0  0  0  0  0  0  0  0  0  0
    2.8689   -2.3299    0.0000 C   0  0  0  0  0  0  0  0  0  0  0  0
    3.4223   -2.9425    0.0000 C   0  0  0  0  0  0  0  0  0  0  0  0
    3.9285   -1.3689    0.0000 C   0  0  0  0  0  0  0  0  0  0  0  0
    4.9015   -3.2545    0.0000 O   0  0  0  0  0  0  0  0  0  0  0  0
    5.5721   -2.7651    0.0000 C   0  0  0  0  0  0  0  0  0  0  0  0
    5.3137   -1.9762    0.0000 C   0  0  0  0  0  0  0  0  0  0  0  0
    4.4836   -1.9780    0.0000 C   0  0  0  0  0  0  0  0  0  0  0  0
    4.2287   -2.7681    0.0000 C   0  0  0  0  0  0  0  0  0  0  0  0
    6.3572   -3.0184    0.0000 S   0  0  0  0  0  0  0  0  0  0  0  0
    6.9691   -2.4650    0.0000 Cl  0  0  0  0  0  0  0  0  0  0  0  0
    5.7667   -3.6000    0.0000 O   0  0  0  0  0  0  0  0  0  0  0  0
    7.0667   -3.4292    0.0000 O   0  0  0  0  0  0  0  0  0  0  0  0
  1  2  1  0  0  0  0
  2  3  2  0  0  0  0
  3  9  1  0  0  0  0
  4  1  2  0  0  0  0
  5  6  1  0  0  0  0
  6  7  2  0  0  0  0
  6 10  1  0  0  0  0
  7  8  1  0  0  0  0
  8  4  1  0  0  0  0
  8  9  2  0  0  0  0
  9  5  1  0  0  0  0
 10 11  1  0  0  0  0
 10 12  2  0  0  0  0
 10 13  2  0  0  0  0
M  END
>  <MOLFORMULA>
C8 H5 Cl O3 S

>  <MOLWEIGHT>
2.166435000000000e+002

>  <code>
CC06603

>  <appearance>
solid

>  <purity>
95%

>  <product_name>
1-benzofuran-2-sulfonyl chloride

>  <cansmi>
ClS(=O)(=O)c1cc2c(o1)cccc2

>  <HBA2>
3

>  <HBD>
0

>  <logP>
3.4411

>  <TPSA>
55.66

>  <MW>
216.642

$$$$

 OpenBabel02131620232D

 13 14  0  0  0  0  0  0  0  0999 V2000
    0.1079   -2.4366    0.0000 C   0  0  0  0  0  0  0  0  0  0  0  0
    0.8319   -2.0337    0.0000 C   0  0  0  0  0  0  0  0  0  0  0  0
    0.8372   -1.2030    0.0000 C   0  0  0  0  0  0  0  0  0  0  0  0
    0.1226   -0.7792    0.0000 C   0  0  0  0  0  0  0  0  0  0  0  0
    0.1312    0.0499    0.0000 S   0  0  0  0  0  0  0  0  0  0  0  0
   -0.6034   -2.0203    0.0000 C   0  0  0  0  0  0  0  0  0  0  0  0
   -0.5961   -1.1915    0.0000 C   0  0  0  0  0  0  0  0  0  0  0  0
   -1.3803   -0.9259    0.0000 N   0  0  0  0  0  0  0  0  0  0  0  0
   -1.8757   -1.5926    0.0000 S   0  0  0  0  0  0  0  0  0  0  0  0
   -1.3963   -2.2678    0.0000 N   0  0  0  0  0  0  0  0  0  0  0  0
   -0.6708    0.2667    0.0000 O   0  0  0  0  0  0  0  0  0  0  0  0
    0.7125    0.6375    0.0000 O   0  0  0  0  0  0  0  0  0  0  0  0
    0.8667   -0.1875    0.0000 Cl  0  0  0  0  0  0  0  0  0  0  0  0
  1  2  2  0  0  0  0
  2  3  1  0  0  0  0
  3  4  2  0  0  0  0
  4  5  1  0  0  0  0
  5 11  2  0  0  0  0
  5 12  2  0  0  0  0
  5 13  1  0  0  0  0
  6  7  1  0  0  0  0
  6  1  1  0  0  0  0
  7  4  1  0  0  0  0
  7  8  2  0  0  0  0
  8  9  1  0  0  0  0
  9 10  1  0  0  0  0
 10  6  2  0  0  0  0
M  END
>  <MOLFORMULA>
C6 H3 Cl N2 O2 S2

>  <MOLWEIGHT>
2.346867000000000e+002

>  <code>
CC09103

>  <appearance>
solid

>  <purity>
97%

>  <product_name>
2,1,3-benzothiadiazole-4-sulfonyl chloride

>  <cansmi>
ClS(=O)(=O)c1cccc2c1nsn2

>  <HBA2>
5

>  <HBD>
0

>  <logP>
2.6996

>  <TPSA>
96.54

>  <MW>
234.683

$$$$

 OpenBabel02131620232D

 13 14  0  0  0  0  0  0  0  0999 V2000
   -0.5714   -0.2783    0.0000 C   0  0  0  0  0  0  0  0  0  0  0  0
    0.1527    0.1246    0.0000 C   0  0  0  0  0  0  0  0  0  0  0  0
    0.1580    0.9553    0.0000 C   0  0  0  0  0  0  0  0  0  0  0  0
   -0.5566    1.3791    0.0000 C   0  0  0  0  0  0  0  0  0  0  0  0
   -1.2827    0.1380    0.0000 C   0  0  0  0  0  0  0  0  0  0  0  0
   -1.2754    0.9668    0.0000 C   0  0  0  0  0  0  0  0  0  0  0  0
   -2.0595    1.2324    0.0000 N   0  0  0  0  0  0  0  0  0  0  0  0
   -2.5549    0.5657    0.0000 S   0  0  0  0  0  0  0  0  0  0  0  0
   -2.0755   -0.1095    0.0000 N   0  0  0  0  0  0  0  0  0  0  0  0
    0.8762    1.3613    0.0000 S   0  0  0  0  0  0  0  0  0  0  0  0
    0.2875    1.9500    0.0000 O   0  0  0  0  0  0  0  0  0  0  0  0
    1.4583    1.9500    0.0000 O   0  0  0  0  0  0  0  0  0  0  0  0
    1.6708    1.1500    0.0000 Cl  0  0  0  0  0  0  0  0  0  0  0  0
  1  2  2  0  0  0  0
  2  3  1  0  0  0  0
  3 10  1  0  0  0  0
  3  4  2  0  0  0  0
  5  6  1  0  0  0  0
  5  1  1  0  0  0  0
  6  7  2  0  0  0  0
  6  4  1  0  0  0  0
  7  8  1  0  0  0  0
  8  9  1  0  0  0  0
  9  5  2  0  0  0  0
 10 11  2  0  0  0  0
 10 12  2  0  0  0  0
 10 13  1  0  0  0  0
M  END
>  <MOLFORMULA>
C6 H3 Cl N2 O2 S2

>  <MOLWEIGHT>
2.346867000000000e+002

>  <code>
CC09203

>  <appearance>
solid

>  <purity>
TECH

>  <product_name>
2,1,3-benzothiadiazole-5-sulfonyl chloride

>  <cansmi>
ClS(=O)(=O)c1ccc2c(c1)nsn2

>  <HBA2>
5

>  <HBD>
0

>  <logP>
2.6996

>  <TPSA>
96.54

>  <MW>
234.683

$$$$

 OpenBabel02131620232D

 13 14  0  0  0  0  0  0  0  0999 V2000
   -0.1336   -1.6819    0.0000 C   0  0  0  0  0  0  0  0  0  0  0  0
    0.5828   -1.2685    0.0000 C   0  0  0  0  0  0  0  0  0  0  0  0
    0.5800   -0.4380    0.0000 C   0  0  0  0  0  0  0  0  0  0  0  0
   -0.1354   -0.0289    0.0000 C   0  0  0  0  0  0  0  0  0  0  0  0
   -0.8484   -1.2690    0.0000 C   0  0  0  0  0  0  0  0  0  0  0  0
   -0.8472   -0.4401    0.0000 C   0  0  0  0  0  0  0  0  0  0  0  0
   -1.6352   -0.1827    0.0000 N   0  0  0  0  0  0  0  0  0  0  0  0
   -2.1234   -0.8526    0.0000 O   0  0  0  0  0  0  0  0  0  0  0  0
   -1.6372   -1.5239    0.0000 N   0  0  0  0  0  0  0  0  0  0  0  0
   -0.1372    0.7961    0.0000 S   0  0  0  0  0  0  0  0  0  0  0  0
    0.5763    1.2102    0.0000 O   0  0  0  0  0  0  0  0  0  0  0  0
   -0.8526    1.2071    0.0000 O   0  0  0  0  0  0  0  0  0  0  0  0
    0.5750    0.3875    0.0000 Cl  0  0  0  0  0  0  0  0  0  0  0  0
  1  2  2  0  0  0  0
  2  3  1  0  0  0  0
  3  4  2  0  0  0  0
  4  6  1  0  0  0  0
  4 10  1  0  0  0  0
  5  6  1  0  0  0  0
  5  1  1  0  0  0  0
  6  7  2  0  0  0  0
  7  8  1  0  0  0  0
  8  9  1  0  0  0  0
  9  5  2  0  0  0  0
 10 11  2  0  0  0  0
 10 12  2  0  0  0  0
 10 13  1  0  0  0  0
M  END
>  <MOLFORMULA>
C6 H3 Cl N2 O3 S

>  <MOLWEIGHT>
2.186197000000000e+002

>  <code>
CC09603

>  <appearance>
solid

>  <purity>
97%

>  <product_name>
2,1,3-benzoxadiazole-4-sulfonyl chloride

>  <cansmi>
ClS(=O)(=O)c1cccc2c1non2

>  <HBA2>
5

>  <HBD>
0

>  <logP>
2.2311

>  <TPSA>
81.44

>  <MW>
218.618

$$$$

 OpenBabel02131620232D

 15 16  0  0  0  0  0  0  0  0999 V2000
   -0.2375    0.5458    0.0000 S   0  0  0  0  0  0  0  0  0  0  0  0
    0.4318    1.0283    0.0000 C   0  0  0  0  0  0  0  0  0  0  0  0
    0.1750    1.8166    0.0000 C   0  0  0  0  0  0  0  0  0  0  0  0
   -0.6500    1.8166    0.0000 C   0  0  0  0  0  0  0  0  0  0  0  0
   -0.9068    1.0283    0.0000 C   0  0  0  0  0  0  0  0  0  0  0  0
   -1.6910    0.7722    0.0000 C   0  0  0  0  0  0  0  0  0  0  0  0
    1.2161    0.7722    0.0000 S   0  0  0  0  0  0  0  0  0  0  0  0
    1.8300    1.3233    0.0000 Cl  0  0  0  0  0  0  0  0  0  0  0  0
   -2.3014    1.3247    0.0000 C   0  0  0  0  0  0  0  0  0  0  0  0
   -3.0850    1.0692    0.0000 C   0  0  0  0  0  0  0  0  0  0  0  0
   -3.2560    0.2612    0.0000 C   0  0  0  0  0  0  0  0  0  0  0  0
   -2.6371   -0.2908    0.0000 C   0  0  0  0  0  0  0  0  0  0  0  0
   -1.8559   -0.0323    0.0000 C   0  0  0  0  0  0  0  0  0  0  0  0
    0.7958    0.0625    0.0000 O   0  0  0  0  0  0  0  0  0  0  0  0
    1.9250    0.3625    0.0000 O   0  0  0  0  0  0  0  0  0  0  0  0
  1  2  1  0  0  0  0
  2  3  2  0  0  0  0
  2  7  1  0  0  0  0
  3  4  1  0  0  0  0
  4  5  2  0  0  0  0
  5  1  1  0  0  0  0
  5  6  1  0  0  0  0
  6  9  2  0  0  0  0
  7  8  1  0  0  0  0
  7 14  2  0  0  0  0
  7 15  2  0  0  0  0
  9 10  1  0  0  0  0
 10 11  2  0  0  0  0
 11 12  1  0  0  0  0
 12 13  2  0  0  0  0
 13  6  1  0  0  0  0
M  END
>  <MOLFORMULA>
C10 H7 Cl O2 S2

>  <MOLWEIGHT>
2.587483000000000e+002

>  <code>
CC10503

>  <appearance>
Solid

>  <purity>
95%

>  <product_name>
5-phenyl-2-thiophenesulfonyl chloride

>  <cansmi>
ClS(=O)(=O)c1ccc(s1)c1ccccc1

>  <HBA2>
3

>  <HBD>
0

>  <logP>
4.4234

>  <TPSA>
70.76

>  <MW>
258.744

$$$$

 OpenBabel02131620232D

 13 14  0  0  0  0  0  0  0  0999 V2000
    3.9960   -4.9503    0.0000 C   0  0  0  0  0  0  0  0  0  0  0  0
    3.7569   -5.7424    0.0000 C   0  0  0  0  0  0  0  0  0  0  0  0
    4.3228   -6.3434    0.0000 C   0  0  0  0  0  0  0  0  0  0  0  0
    4.7964   -4.7597    0.0000 C   0  0  0  0  0  0  0  0  0  0  0  0
    5.8081   -6.6249    0.0000 S   0  0  0  0  0  0  0  0  0  0  0  0
    6.4684   -6.1217    0.0000 C   0  0  0  0  0  0  0  0  0  0  0  0
    6.1938   -5.3383    0.0000 C   0  0  0  0  0  0  0  0  0  0  0  0
    5.3639   -5.3572    0.0000 C   0  0  0  0  0  0  0  0  0  0  0  0
    5.1255   -6.1524    0.0000 C   0  0  0  0  0  0  0  0  0  0  0  0
    7.2587   -6.3587    0.0000 S   0  0  0  0  0  0  0  0  0  0  0  0
    7.4486   -7.1615    0.0000 Cl  0  0  0  0  0  0  0  0  0  0  0  0
    7.4892   -5.5641    0.0000 O   0  0  0  0  0  0  0  0  0  0  0  0
    8.0461   -6.5927    0.0000 O   0  0  0  0  0  0  0  0  0  0  0  0
  1  2  2  0  0  0  0
  2  3  1  0  0  0  0
  3  9  2  0  0  0  0
  4  1  1  0  0  0  0
  5  6  1  0  0  0  0
  6 10  1  0  0  0  0
  6  7  2  0  0  0  0
  7  8  1  0  0  0  0
  8  4  2  0  0  0  0
  8  9  1  0  0  0  0
  9  5  1  0  0  0  0
 10 11  1  0  0  0  0
 10 12  2  0  0  0  0
 10 13  2  0  0  0  0
M  END
>  <MOLFORMULA>
C8 H5 Cl O2 S2

>  <MOLWEIGHT>
2.327105000000000e+002

>  <code>
CC12203

>  <appearance>
solid

>  <purity>
97%

>  <product_name>
1-benzothiophene-2-sulfonyl chloride

>  <cansmi>
ClS(=O)(=O)c1cc2c(s1)cccc2

>  <HBA2>
3

>  <HBD>
0

>  <logP>
3.9096

>  <TPSA>
70.76

>  <MW>
232.707

$$$$

 OpenBabel02131620232D

 13 14  0  0  0  0  0  0  0  0999 V2000
   -1.6667   -2.4167    0.0000 S   0  0  0  0  0  0  0  0  0  0  0  0
   -0.9974   -1.9342    0.0000 C   0  0  0  0  0  0  0  0  0  0  0  0
   -1.2542   -1.1459    0.0000 C   0  0  0  0  0  0  0  0  0  0  0  0
   -2.3360   -1.9342    0.0000 C   0  0  0  0  0  0  0  0  0  0  0  0
   -2.0773   -1.1485    0.0000 C   0  0  0  0  0  0  0  0  0  0  0  0
   -2.6279   -0.5337    0.0000 C   0  0  0  0  0  0  0  0  0  0  0  0
   -3.4373   -0.7034    0.0000 C   0  0  0  0  0  0  0  0  0  0  0  0
   -3.6931   -1.4933    0.0000 C   0  0  0  0  0  0  0  0  0  0  0  0
   -3.1408   -2.1048    0.0000 C   0  0  0  0  0  0  0  0  0  0  0  0
   -0.7706   -0.4775    0.0000 S   0  0  0  0  0  0  0  0  0  0  0  0
   -1.4875   -0.0625    0.0000 O   0  0  0  0  0  0  0  0  0  0  0  0
   -0.1875    0.1125    0.0000 O   0  0  0  0  0  0  0  0  0  0  0  0
   -0.0583   -0.8875    0.0000 Cl  0  0  0  0  0  0  0  0  0  0  0  0
  1  2  1  0  0  0  0
  2  3  2  0  0  0  0
  3 10  1  0  0  0  0
  3  5  1  0  0  0  0
  4  1  1  0  0  0  0
  4  5  2  0  0  0  0
  5  6  1  0  0  0  0
  6  7  2  0  0  0  0
  7  8  1  0  0  0  0
  8  9  2  0  0  0  0
  9  4  1  0  0  0  0
 10 11  2  0  0  0  0
 10 12  2  0  0  0  0
 10 13  1  0  0  0  0
M  END
>  <MOLFORMULA>
C8 H5 Cl O2 S2

>  <MOLWEIGHT>
2.327105000000000e+002

>  <code>
CC12303

>  <appearance>
solid

>  <purity>
97%

>  <product_name>
1-benzothiophene-3-sulfonyl chloride

>  <cansmi>
ClS(=O)(=O)c1csc2c1cccc2

>  <HBA2>
3

>  <HBD>
0

>  <logP>
3.9096

>  <TPSA>
70.76

>  <MW>
232.707

$$$$

 OpenBabel02131620232D

  9  9  0  0  0  0  0  0  0  0999 V2000
   -1.0667   -0.3791    0.0000 S   0  0  0  0  0  0  0  0  0  0  0  0
   -0.3974    0.1033    0.0000 C   0  0  0  0  0  0  0  0  0  0  0  0
   -0.6542    0.8916    0.0000 C   0  0  0  0  0  0  0  0  0  0  0  0
   -1.4792    0.8916    0.0000 C   0  0  0  0  0  0  0  0  0  0  0  0
   -1.7360    0.1033    0.0000 C   0  0  0  0  0  0  0  0  0  0  0  0
    0.3869   -0.1528    0.0000 S   0  0  0  0  0  0  0  0  0  0  0  0
    1.0008    0.3984    0.0000 Cl  0  0  0  0  0  0  0  0  0  0  0  0
   -0.0333   -0.8625    0.0000 O   0  0  0  0  0  0  0  0  0  0  0  0
    1.0958   -0.5625    0.0000 O   0  0  0  0  0  0  0  0  0  0  0  0
  1  2  1  0  0  0  0
  2  6  1  0  0  0  0
  2  3  2  0  0  0  0
  3  4  1  0  0  0  0
  4  5  2  0  0  0  0
  5  1  1  0  0  0  0
  6  7  1  0  0  0  0
  6  8  2  0  0  0  0
  6  9  2  0  0  0  0
M  END
>  <MOLFORMULA>
C4 H3 Cl O2 S2

>  <MOLWEIGHT>
1.826507000000000e+002

>  <code>
CC13003

>  <appearance>
solid

>  <purity>
97%

>  <product_name>
thiophene-2-sulfonyl chloride

>  <cansmi>
ClS(=O)(=O)c1cccs1

>  <HBA2>
3

>  <HBD>
0

>  <logP>
2.7564

>  <TPSA>
70.76

>  <MW>
182.648

$$$$

 OpenBabel02131620232D

  9  9  0  0  0  0  0  0  0  0999 V2000
   -2.0959   -0.3542    0.0000 S   0  0  0  0  0  0  0  0  0  0  0  0
   -1.4266    0.1282    0.0000 C   0  0  0  0  0  0  0  0  0  0  0  0
   -1.6834    0.9165    0.0000 C   0  0  0  0  0  0  0  0  0  0  0  0
   -2.5084    0.9165    0.0000 C   0  0  0  0  0  0  0  0  0  0  0  0
   -2.7652    0.1282    0.0000 C   0  0  0  0  0  0  0  0  0  0  0  0
   -1.1987    1.5842    0.0000 S   0  0  0  0  0  0  0  0  0  0  0  0
   -2.0000    1.8042    0.0000 O   0  0  0  0  0  0  0  0  0  0  0  0
   -0.6167    2.1750    0.0000 O   0  0  0  0  0  0  0  0  0  0  0  0
   -0.4042    1.3750    0.0000 Cl  0  0  0  0  0  0  0  0  0  0  0  0
  1  2  1  0  0  0  0
  2  3  2  0  0  0  0
  3  6  1  0  0  0  0
  3  4  1  0  0  0  0
  4  5  2  0  0  0  0
  5  1  1  0  0  0  0
  6  7  2  0  0  0  0
  6  8  2  0  0  0  0
  6  9  1  0  0  0  0
M  END
>  <MOLFORMULA>
C4 H3 Cl O2 S2

>  <MOLWEIGHT>
1.826507000000000e+002

>  <code>
CC13103

>  <appearance>
liquid

>  <purity>
97%

>  <product_name>
3-thiophenesulfonyl chloride

>  <cansmi>
ClS(=O)(=O)c1cscc1

>  <HBA2>
3

>  <HBD>
0

>  <logP>
2.7564

>  <TPSA>
70.76

>  <MW>
182.648

$$$$

 OpenBabel02131620232D

 15 16  0  0  0  0  0  0  0  0999 V2000
    3.2750   -2.0042    0.0000 S   0  0  0  0  0  0  0  0  0  0  0  0
    2.7667   -2.3000    0.0000 C   0  0  0  0  0  0  0  0  0  0  0  0
    2.2667   -2.0042    0.0000 C   0  0  0  0  0  0  0  0  0  0  0  0
    1.7667   -2.2917    0.0000 C   0  0  0  0  0  0  0  0  0  0  0  0
    2.7417   -1.5042    0.0000 O   0  0  0  0  0  0  0  0  0  0  0  0
    3.7667   -1.5042    0.0000 O   0  0  0  0  0  0  0  0  0  0  0  0
    1.7625   -2.8750    0.0000 C   0  0  0  0  0  0  0  0  0  0  0  0
    3.7792   -2.2917    0.0000 Cl  0  0  0  0  0  0  0  0  0  0  0  0
    1.3042   -1.9167    0.0000 O   0  0  0  0  0  0  0  0  0  0  0  0
    1.3000   -3.2375    0.0000 O   0  0  0  0  0  0  0  0  0  0  0  0
    2.7667   -2.8792    0.0000 C   0  0  0  0  0  0  0  0  0  0  0  0
    2.2667   -3.1667    0.0000 C   0  0  0  0  0  0  0  0  0  0  0  0
    0.4792   -2.5667    0.0000 C   0  0  0  0  0  0  0  0  0  0  0  0
    0.7375   -2.0417    0.0000 C   0  0  0  0  0  0  0  0  0  0  0  0
    0.7292   -3.1042    0.0000 C   0  0  0  0  0  0  0  0  0  0  0  0
  2  1  1  0  0  0  0
  3  2  1  0  0  0  0
  4  3  2  0  0  0  0
  4  7  1  0  0  0  0
  5  1  2  0  0  0  0
  6  1  2  0  0  0  0
  7 12  2  0  0  0  0
  8  1  1  0  0  0  0
  9  4  1  0  0  0  0
 10  7  1  0  0  0  0
 11  2  2  0  0  0  0
 12 11  1  0  0  0  0
 13 14  1  0  0  0  0
 14  9  1  0  0  0  0
 15 10  1  0  0  0  0
 15 13  1  0  0  0  0
M  END
>  <MOLFORMULA>
C9 H9 Cl O4 S

>  <MOLWEIGHT>
2.486851000000000e+002

>  <code>
CC13203

>  <appearance>
liquid

>  <purity>
97%

>  <product_name>
3,4-dihydro-2H-1,5-benzodioxepine-7-sulfonyl chloride

>  <cansmi>
ClS(=O)(=O)c1ccc2c(c1)OCCCO2

>  <HBA2>
4

>  <HBD>
0

>  <logP>
2.8562

>  <TPSA>
60.98

>  <MW>
248.683

$$$$

 OpenBabel02131620232D

 14 15  0  0  0  0  0  0  0  0999 V2000
   -0.3833   -0.0375    0.0000 S   0  0  0  0  0  0  0  0  0  0  0  0
    0.2860    0.4450    0.0000 C   0  0  0  0  0  0  0  0  0  0  0  0
    0.0292    1.2333    0.0000 C   0  0  0  0  0  0  0  0  0  0  0  0
   -0.7958    1.2333    0.0000 C   0  0  0  0  0  0  0  0  0  0  0  0
   -1.0526    0.4450    0.0000 C   0  0  0  0  0  0  0  0  0  0  0  0
    1.0702    0.1889    0.0000 S   0  0  0  0  0  0  0  0  0  0  0  0
    1.6841    0.7400    0.0000 Cl  0  0  0  0  0  0  0  0  0  0  0  0
    0.6500   -0.5208    0.0000 O   0  0  0  0  0  0  0  0  0  0  0  0
    1.7792   -0.2208    0.0000 O   0  0  0  0  0  0  0  0  0  0  0  0
   -1.8369    0.1889    0.0000 C   0  0  0  0  0  0  0  0  0  0  0  0
   -2.5072    0.6763    0.0000 O   0  0  0  0  0  0  0  0  0  0  0  0
   -3.1740    0.1904    0.0000 C   0  0  0  0  0  0  0  0  0  0  0  0
   -2.9178   -0.5939    0.0000 N   0  0  0  0  0  0  0  0  0  0  0  0
   -2.0929   -0.5925    0.0000 C   0  0  0  0  0  0  0  0  0  0  0  0
  1  2  1  0  0  0  0
  2  3  2  0  0  0  0
  2  6  1  0  0  0  0
  3  4  1  0  0  0  0
  4  5  2  0  0  0  0
  5 10  1  0  0  0  0
  5  1  1  0  0  0  0
  6  7  1  0  0  0  0
  6  8  2  0  0  0  0
  6  9  2  0  0  0  0
 10 11  1  0  0  0  0
 11 12  1  0  0  0  0
 12 13  2  0  0  0  0
 13 14  1  0  0  0  0
 14 10  2  0  0  0  0
M  END
>  <MOLFORMULA>
C7 H4 Cl N O3 S2

>  <MOLWEIGHT>
2.496976000000000e+002

>  <code>
CC14203

>  <appearance>
solid

>  <purity>
97%

>  <product_name>
5-(1,3-oxazol-5-yl)-2-thiophenesulfonyl chloride

>  <cansmi>
ClS(=O)(=O)c1ccc(s1)c1cnco1

>  <HBA2>
5

>  <HBD>
0

>  <logP>
3.4114

>  <TPSA>
96.79

>  <MW>
249.695

$$$$

 OpenBabel02131620232D

 15 16  0  0  0  0  0  0  0  0999 V2000
    3.8834   -1.8126    0.0000 C   0  0  0  0  0  0  0  0  0  0  0  0
    6.7584   -3.4667    0.0000 S   0  0  0  0  0  0  0  0  0  0  0  0
    4.6001   -2.2250    0.0000 C   0  0  0  0  0  0  0  0  0  0  0  0
    6.0417   -3.0500    0.0000 C   0  0  0  0  0  0  0  0  0  0  0  0
    5.3209   -3.4667    0.0000 C   0  0  0  0  0  0  0  0  0  0  0  0
    6.0251   -2.2166    0.0000 C   0  0  0  0  0  0  0  0  0  0  0  0
    4.6001   -3.0500    0.0000 C   0  0  0  0  0  0  0  0  0  0  0  0
    5.3084   -1.8126    0.0000 C   0  0  0  0  0  0  0  0  0  0  0  0
    7.4667   -3.0458    0.0000 Cl  0  0  0  0  0  0  0  0  0  0  0  0
    3.7978   -0.9897    0.0000 C   0  0  0  0  0  0  0  0  0  0  0  0
    2.9882   -0.8160    0.0000 N   0  0  0  0  0  0  0  0  0  0  0  0
    2.5756   -1.5285    0.0000 C   0  0  0  0  0  0  0  0  0  0  0  0
    3.1282   -2.1452    0.0000 O   0  0  0  0  0  0  0  0  0  0  0  0
    7.4709   -3.8792    0.0000 O   0  0  0  0  0  0  0  0  0  0  0  0
    6.1708   -4.0500    0.0000 O   0  0  0  0  0  0  0  0  0  0  0  0
  1 10  2  0  0  0  0
  2  4  1  0  0  0  0
  2 14  2  0  0  0  0
  2 15  2  0  0  0  0
  3  1  1  0  0  0  0
  4  5  2  0  0  0  0
  4  6  1  0  0  0  0
  5  7  1  0  0  0  0
  6  8  2  0  0  0  0
  7  3  2  0  0  0  0
  8  3  1  0  0  0  0
  9  2  1  0  0  0  0
 10 11  1  0  0  0  0
 11 12  2  0  0  0  0
 12 13  1  0  0  0  0
 13  1  1  0  0  0  0
M  END
>  <MOLFORMULA>
C9 H6 Cl N O3 S

>  <MOLWEIGHT>
2.436694000000000e+002

>  <code>
CC14503

>  <appearance>
solid

>  <purity>
97%

>  <product_name>
4-(1,3-oxazol-5-yl)benzenesulfonyl chloride

>  <cansmi>
ClS(=O)(=O)c1ccc(cc1)c1cnco1

>  <HBA2>
4

>  <HBD>
0

>  <logP>
3.3499

>  <TPSA>
68.55

>  <MW>
243.667

$$$$

 OpenBabel02131620232D

 12 12  0  0  0  0  0  0  0  0999 V2000
   -0.7667   -0.9833    0.0000 N   0  0  0  0  0  0  0  0  0  0  0  0
   -1.4360   -0.5009    0.0000 N   0  0  0  0  0  0  0  0  0  0  0  0
   -1.1792    0.2874    0.0000 C   0  0  0  0  0  0  0  0  0  0  0  0
   -0.3542    0.2874    0.0000 C   0  0  0  0  0  0  0  0  0  0  0  0
   -0.0974   -0.5009    0.0000 C   0  0  0  0  0  0  0  0  0  0  0  0
    0.6869   -0.7570    0.0000 C   0  0  0  0  0  0  0  0  0  0  0  0
   -0.7667   -1.8083    0.0000 C   0  0  0  0  0  0  0  0  0  0  0  0
   -1.6638    0.9551    0.0000 C   0  0  0  0  0  0  0  0  0  0  0  0
    0.1305    0.9551    0.0000 S   0  0  0  0  0  0  0  0  0  0  0  0
   -0.5875    1.3708    0.0000 O   0  0  0  0  0  0  0  0  0  0  0  0
    0.7125    1.5458    0.0000 O   0  0  0  0  0  0  0  0  0  0  0  0
    0.8417    0.5458    0.0000 Cl  0  0  0  0  0  0  0  0  0  0  0  0
  1  7  1  0  0  0  0
  1  2  1  0  0  0  0
  2  3  2  0  0  0  0
  3  8  1  0  0  0  0
  3  4  1  0  0  0  0
  4  9  1  0  0  0  0
  4  5  2  0  0  0  0
  5  1  1  0  0  0  0
  5  6  1  0  0  0  0
  9 10  2  0  0  0  0
  9 11  2  0  0  0  0
  9 12  1  0  0  0  0
M  END
>  <MOLFORMULA>
C6 H9 Cl N2 O2 S

>  <MOLWEIGHT>
2.086681000000000e+002

>  <code>
CC14703

>  <appearance>
solid

>  <purity>
97%

>  <product_name>
1,3,5-trimethyl-1H-pyrazole-4-sulfonyl chloride

>  <cansmi>
Cn1nc(c(c1C)S(=O)(=O)Cl)C

>  <HBA2>
4

>  <HBD>
0

>  <logP>
2.0452

>  <TPSA>
60.34

>  <MW>
208.666

$$$$

 OpenBabel02131620232D

 16 17  0  0  0  0  0  0  0  0999 V2000
   -3.1333   -0.5958    0.0000 N   0  0  0  0  0  0  0  0  0  0  0  0
   -2.4640   -0.1133    0.0000 C   0  0  0  0  0  0  0  0  0  0  0  0
   -2.7208    0.6750    0.0000 C   0  0  0  0  0  0  0  0  0  0  0  0
   -3.5458    0.6750    0.0000 C   0  0  0  0  0  0  0  0  0  0  0  0
   -3.8026   -0.1133    0.0000 N   0  0  0  0  0  0  0  0  0  0  0  0
   -3.1333   -1.4208    0.0000 C   0  0  0  0  0  0  0  0  0  0  0  0
   -3.8501   -1.8314    0.0000 C   0  0  0  0  0  0  0  0  0  0  0  0
   -3.8505   -2.6556    0.0000 C   0  0  0  0  0  0  0  0  0  0  0  0
   -3.1355   -3.0690    0.0000 C   0  0  0  0  0  0  0  0  0  0  0  0
   -2.4186   -2.6520    0.0000 C   0  0  0  0  0  0  0  0  0  0  0  0
   -2.4218   -1.8292    0.0000 C   0  0  0  0  0  0  0  0  0  0  0  0
   -1.6798   -0.3694    0.0000 C   0  0  0  0  0  0  0  0  0  0  0  0
   -2.2361    1.3426    0.0000 S   0  0  0  0  0  0  0  0  0  0  0  0
   -1.4156    1.2566    0.0000 Cl  0  0  0  0  0  0  0  0  0  0  0  0
   -2.9542    1.7583    0.0000 O   0  0  0  0  0  0  0  0  0  0  0  0
   -1.8292    2.0625    0.0000 O   0  0  0  0  0  0  0  0  0  0  0  0
  1  2  1  0  0  0  0
  1  6  1  0  0  0  0
  2 12  1  0  0  0  0
  2  3  2  0  0  0  0
  3  4  1  0  0  0  0
  3 13  1  0  0  0  0
  4  5  2  0  0  0  0
  5  1  1  0  0  0  0
  6  7  2  0  0  0  0
  7  8  1  0  0  0  0
  8  9  2  0  0  0  0
  9 10  1  0  0  0  0
 10 11  2  0  0  0  0
 11  6  1  0  0  0  0
 13 14  1  0  0  0  0
 13 15  2  0  0  0  0
 13 16  2  0  0  0  0
M  END
>  <MOLFORMULA>
C10 H9 Cl N2 O2 S

>  <MOLWEIGHT>
2.567121000000000e+002

>  <code>
CC15503

>  <appearance>
solid

>  <purity>
95%

>  <product_name>
5-methyl-1-phenyl-1H-pyrazole-4-sulfonyl chloride

>  <cansmi>
Cc1n(ncc1S(=O)(=O)Cl)c1ccccc1

>  <HBA2>
4

>  <HBD>
0

>  <logP>
3.189

>  <TPSA>
60.34

>  <MW>
256.709

$$$$

 OpenBabel02131620232D

 14 15  0  0  0  0  0  0  0  0999 V2000
    3.5706   -3.3055    0.0000 O   0  0  0  0  0  0  0  0  0  0  0  0
    3.9923   -2.5963    0.0000 C   0  0  0  0  0  0  0  0  0  0  0  0
    3.4427   -1.9756    0.0000 C   0  0  0  0  0  0  0  0  0  0  0  0
    2.6860   -2.3043    0.0000 C   0  0  0  0  0  0  0  0  0  0  0  0
    2.7645   -3.1296    0.0000 N   0  0  0  0  0  0  0  0  0  0  0  0
    5.4458   -2.8249    0.0000 S   0  0  0  0  0  0  0  0  0  0  0  0
    6.1151   -2.3425    0.0000 C   0  0  0  0  0  0  0  0  0  0  0  0
    5.8583   -1.5542    0.0000 C   0  0  0  0  0  0  0  0  0  0  0  0
    5.0333   -1.5542    0.0000 C   0  0  0  0  0  0  0  0  0  0  0  0
    4.7765   -2.3425    0.0000 C   0  0  0  0  0  0  0  0  0  0  0  0
    6.8993   -2.5986    0.0000 S   0  0  0  0  0  0  0  0  0  0  0  0
    7.5133   -2.0475    0.0000 Cl  0  0  0  0  0  0  0  0  0  0  0  0
    6.3083   -3.1792    0.0000 O   0  0  0  0  0  0  0  0  0  0  0  0
    7.6917   -2.8083    0.0000 O   0  0  0  0  0  0  0  0  0  0  0  0
  1  2  1  0  0  0  0
  2  3  2  0  0  0  0
  3  4  1  0  0  0  0
  4  5  2  0  0  0  0
  5  1  1  0  0  0  0
  6  7  1  0  0  0  0
  7 11  1  0  0  0  0
  7  8  2  0  0  0  0
  8  9  1  0  0  0  0
  9 10  2  0  0  0  0
 10  6  1  0  0  0  0
 10  2  1  0  0  0  0
 11 12  1  0  0  0  0
 11 13  2  0  0  0  0
 11 14  2  0  0  0  0
M  END
>  <MOLFORMULA>
C7 H4 Cl N O3 S2

>  <MOLWEIGHT>
2.496976000000000e+002

>  <code>
CC16003

>  <appearance>
Solid

>  <purity>
Tech

>  <product_name>
5-isoxazol-5-ylthiophene-2-sulfonyl chloride

>  <cansmi>
ClS(=O)(=O)c1ccc(s1)c1ccno1

>  <HBA2>
5

>  <HBD>
0

>  <logP>
3.4114

>  <TPSA>
96.79

>  <MW>
249.695

$$$$

 OpenBabel02131620232D

 16 17  0  0  0  0  0  0  0  0999 V2000
    8.6500    2.6083    0.0000 S   0  0  0  0  0  0  0  0  0  0  0  0
    8.1250    2.3000    0.0000 C   0  0  0  0  0  0  0  0  0  0  0  0
    7.0875    1.7000    0.0000 C   0  0  0  0  0  0  0  0  0  0  0  0
    7.6042    1.3958    0.0000 N   0  0  0  0  0  0  0  0  0  0  0  0
    6.5625    1.3958    0.0000 N   0  0  0  0  0  0  0  0  0  0  0  0
    8.1250    2.9083    0.0000 O   0  0  0  0  0  0  0  0  0  0  0  0
    9.1667    2.9083    0.0000 O   0  0  0  0  0  0  0  0  0  0  0  0
    8.1250    1.6958    0.0000 C   0  0  0  0  0  0  0  0  0  0  0  0
    9.1750    2.3083    0.0000 Cl  0  0  0  0  0  0  0  0  0  0  0  0
    7.6000    2.6083    0.0000 C   0  0  0  0  0  0  0  0  0  0  0  0
    7.0792    2.3000    0.0000 C   0  0  0  0  0  0  0  0  0  0  0  0
    5.5167    0.7875    0.0000 O   0  0  0  0  0  0  0  0  0  0  0  0
    6.0375    1.6958    0.0000 C   0  0  0  0  0  0  0  0  0  0  0  0
    6.5625    0.7875    0.0000 C   0  0  0  0  0  0  0  0  0  0  0  0
    5.5167    1.3958    0.0000 C   0  0  0  0  0  0  0  0  0  0  0  0
    6.0375    0.4875    0.0000 C   0  0  0  0  0  0  0  0  0  0  0  0
  2  1  1  0  0  0  0
  3 11  1  0  0  0  0
  4  8  1  0  0  0  0
  4  3  2  0  0  0  0
  5  3  1  0  0  0  0
  6  1  2  0  0  0  0
  7  1  2  0  0  0  0
  8  2  2  0  0  0  0
  9  1  1  0  0  0  0
 10  2  1  0  0  0  0
 11 10  2  0  0  0  0
 12 16  1  0  0  0  0
 12 15  1  0  0  0  0
 13  5  1  0  0  0  0
 14  5  1  0  0  0  0
 15 13  1  0  0  0  0
 16 14  1  0  0  0  0
M  END
>  <MOLFORMULA>
C9 H11 Cl N2 O3 S

>  <MOLWEIGHT>
2.627159000000000e+002

>  <code>
CC17503

>  <appearance>
solid

>  <purity>
97%

>  <product_name>
6-morpholin-4-yl-pyridine-3-sulfonyl chloride

>  <cansmi>
ClS(=O)(=O)c1ccc(nc1)N1CCOCC1

>  <HBA2>
5

>  <HBD>
0

>  <logP>
1.9915

>  <TPSA>
67.88

>  <MW>
262.713

$$$$

 OpenBabel02131620232D

 15 16  0  0  0  0  0  0  0  0999 V2000
   -0.1334    0.7917    0.0000 S   0  0  0  0  0  0  0  0  0  0  0  0
    0.5359    1.2741    0.0000 C   0  0  0  0  0  0  0  0  0  0  0  0
    0.2791    2.0624    0.0000 C   0  0  0  0  0  0  0  0  0  0  0  0
   -0.5459    2.0624    0.0000 C   0  0  0  0  0  0  0  0  0  0  0  0
   -0.8027    1.2741    0.0000 C   0  0  0  0  0  0  0  0  0  0  0  0
    1.3202    1.0180    0.0000 S   0  0  0  0  0  0  0  0  0  0  0  0
    1.9341    1.5692    0.0000 Cl  0  0  0  0  0  0  0  0  0  0  0  0
   -1.5869    1.0180    0.0000 C   0  0  0  0  0  0  0  0  0  0  0  0
   -2.2563    1.4991    0.0000 N   0  0  0  0  0  0  0  0  0  0  0  0
   -2.9230    1.0131    0.0000 C   0  0  0  0  0  0  0  0  0  0  0  0
   -2.6669    0.2288    0.0000 S   0  0  0  0  0  0  0  0  0  0  0  0
   -1.8419    0.2302    0.0000 C   0  0  0  0  0  0  0  0  0  0  0  0
   -3.7080    1.2669    0.0000 C   0  0  0  0  0  0  0  0  0  0  0  0
    0.9000    0.3083    0.0000 O   0  0  0  0  0  0  0  0  0  0  0  0
    2.0292    0.6083    0.0000 O   0  0  0  0  0  0  0  0  0  0  0  0
  1  2  1  0  0  0  0
  2  6  1  0  0  0  0
  2  3  2  0  0  0  0
  3  4  1  0  0  0  0
  4  5  2  0  0  0  0
  5  8  1  0  0  0  0
  5  1  1  0  0  0  0
  6  7  1  0  0  0  0
  6 14  2  0  0  0  0
  6 15  2  0  0  0  0
  8  9  1  0  0  0  0
  9 10  2  0  0  0  0
 10 11  1  0  0  0  0
 10 13  1  0  0  0  0
 11 12  1  0  0  0  0
 12  8  2  0  0  0  0
M  END
>  <MOLFORMULA>
C8 H6 Cl N O2 S3

>  <MOLWEIGHT>
2.797914000000000e+002

>  <code>
CC18203

>  <appearance>
solid

>  <purity>
95%

>  <product_name>
5-(2-methyl-1,3-thiazol-4-yl)thiophene-2-sulfonyl chloride

>  <cansmi>
Cc1scc(n1)c1ccc(s1)S(=O)(=O)Cl

>  <HBA2>
5

>  <HBD>
0

>  <logP>
4.1883

>  <TPSA>
111.89

>  <MW>
279.787

$$$$

 OpenBabel02131620232D

 15 16  0  0  0  0  0  0  0  0999 V2000
    4.5444   -3.1459    0.0000 C   0  0  0  0  0  0  0  0  0  0  0  0
    4.5433   -2.3185    0.0000 C   0  0  0  0  0  0  0  0  0  0  0  0
    5.2581   -1.9056    0.0000 C   0  0  0  0  0  0  0  0  0  0  0  0
    5.9745   -2.3190    0.0000 C   0  0  0  0  0  0  0  0  0  0  0  0
    5.9717   -3.1495    0.0000 C   0  0  0  0  0  0  0  0  0  0  0  0
    5.2563   -3.5586    0.0000 C   0  0  0  0  0  0  0  0  0  0  0  0
    6.6846   -3.5647    0.0000 S   0  0  0  0  0  0  0  0  0  0  0  0
    7.4006   -3.1549    0.0000 Cl  0  0  0  0  0  0  0  0  0  0  0  0
    3.8285   -1.9066    0.0000 N   0  0  0  0  0  0  0  0  0  0  0  0
    3.0736   -2.2413    0.0000 C   0  0  0  0  0  0  0  0  0  0  0  0
    2.5211   -1.6286    0.0000 C   0  0  0  0  0  0  0  0  0  0  0  0
    2.9331   -0.9137    0.0000 C   0  0  0  0  0  0  0  0  0  0  0  0
    3.7401   -1.0848    0.0000 N   0  0  0  0  0  0  0  0  0  0  0  0
    6.0959   -4.1542    0.0000 O   0  0  0  0  0  0  0  0  0  0  0  0
    7.2667   -4.1542    0.0000 O   0  0  0  0  0  0  0  0  0  0  0  0
  1  2  2  0  0  0  0
  2  9  1  0  0  0  0
  2  3  1  0  0  0  0
  3  4  2  0  0  0  0
  4  5  1  0  0  0  0
  5  6  2  0  0  0  0
  5  7  1  0  0  0  0
  6  1  1  0  0  0  0
  7  8  1  0  0  0  0
  7 14  2  0  0  0  0
  7 15  2  0  0  0  0
  9 10  1  0  0  0  0
 10 11  2  0  0  0  0
 11 12  1  0  0  0  0
 12 13  2  0  0  0  0
 13  9  1  0  0  0  0
M  END
>  <MOLFORMULA>
C9 H7 Cl N2 O2 S

>  <MOLWEIGHT>
2.426853000000000e+002

>  <code>
CC18403

>  <appearance>
solid

>  <purity>
97%

>  <product_name>
4-(1H-pyrazol-1-yl)benzenesulfonyl chloride

>  <cansmi>
ClS(=O)(=O)c1ccc(cc1)n1cccn1

>  <HBA2>
4

>  <HBD>
0

>  <logP>
2.8806

>  <TPSA>
60.34

>  <MW>
242.682

$$$$

 OpenBabel02131620232D

 16 17  0  0  0  0  0  0  0  0999 V2000
   -1.7056   -0.7583    0.0000 C   0  0  0  0  0  0  0  0  0  0  0  0
   -1.7068   -1.5857    0.0000 C   0  0  0  0  0  0  0  0  0  0  0  0
   -0.9919   -1.9985    0.0000 C   0  0  0  0  0  0  0  0  0  0  0  0
   -0.2755   -1.5852    0.0000 C   0  0  0  0  0  0  0  0  0  0  0  0
   -0.2784   -0.7547    0.0000 C   0  0  0  0  0  0  0  0  0  0  0  0
   -0.9937   -0.3455    0.0000 C   0  0  0  0  0  0  0  0  0  0  0  0
    0.4346   -0.3395    0.0000 S   0  0  0  0  0  0  0  0  0  0  0  0
    1.1506   -0.7493    0.0000 Cl  0  0  0  0  0  0  0  0  0  0  0  0
   -2.4202   -0.3460    0.0000 C   0  0  0  0  0  0  0  0  0  0  0  0
   -2.5026    0.4787    0.0000 C   0  0  0  0  0  0  0  0  0  0  0  0
   -3.3096    0.6501    0.0000 S   0  0  0  0  0  0  0  0  0  0  0  0
   -3.7220   -0.0645    0.0000 C   0  0  0  0  0  0  0  0  0  0  0  0
   -3.1697   -0.6774    0.0000 N   0  0  0  0  0  0  0  0  0  0  0  0
   -4.5424   -0.1510    0.0000 C   0  0  0  0  0  0  0  0  0  0  0  0
   -0.1542    0.2500    0.0000 O   0  0  0  0  0  0  0  0  0  0  0  0
    0.8417    0.3792    0.0000 O   0  0  0  0  0  0  0  0  0  0  0  0
  1  9  1  0  0  0  0
  1  2  2  0  0  0  0
  2  3  1  0  0  0  0
  3  4  2  0  0  0  0
  4  5  1  0  0  0  0
  5  6  2  0  0  0  0
  5  7  1  0  0  0  0
  6  1  1  0  0  0  0
  7  8  1  0  0  0  0
  7 15  2  0  0  0  0
  7 16  2  0  0  0  0
  9 10  2  0  0  0  0
 10 11  1  0  0  0  0
 11 12  1  0  0  0  0
 12 13  2  0  0  0  0
 12 14  1  0  0  0  0
 13  9  1  0  0  0  0
M  END
>  <MOLFORMULA>
C10 H8 Cl N O2 S2

>  <MOLWEIGHT>
2.737632000000000e+002

>  <code>
CC19403

>  <appearance>
Solid

>  <purity>
95%

>  <product_name>
3-(2-methyl-1,3-thiazol-4-yl)benzenesulfonyl chloride

>  <cansmi>
Cc1scc(n1)c1cccc(c1)S(=O)(=O)Cl

>  <HBA2>
4

>  <HBD>
0

>  <logP>
4.1268

>  <TPSA>
83.65

>  <MW>
273.759

$$$$

 OpenBabel02131620232D

 17 18  0  0  0  0  0  0  0  0999 V2000
    7.5292    0.0833    0.0000 S   0  0  0  0  0  0  0  0  0  0  0  0
    7.0125   -0.2167    0.0000 C   0  0  0  0  0  0  0  0  0  0  0  0
    6.4917   -1.1167    0.0000 N   0  0  0  0  0  0  0  0  0  0  0  0
    8.0000    0.5833    0.0000 O   0  0  0  0  0  0  0  0  0  0  0  0
    7.0625    0.5250    0.0000 O   0  0  0  0  0  0  0  0  0  0  0  0
    5.9792   -0.8167    0.0000 C   0  0  0  0  0  0  0  0  0  0  0  0
    7.0125   -0.8167    0.0000 C   0  0  0  0  0  0  0  0  0  0  0  0
    8.0542   -0.2167    0.0000 Cl  0  0  0  0  0  0  0  0  0  0  0  0
    6.4875    0.0833    0.0000 C   0  0  0  0  0  0  0  0  0  0  0  0
    5.4542   -1.1250    0.0000 O   0  0  0  0  0  0  0  0  0  0  0  0
    5.9667   -0.2167    0.0000 C   0  0  0  0  0  0  0  0  0  0  0  0
    4.9375   -0.8250    0.0000 C   0  0  0  0  0  0  0  0  0  0  0  0
    4.4167   -1.1250    0.0000 C   0  0  0  0  0  0  0  0  0  0  0  0
    4.9375   -0.2167    0.0000 C   0  0  0  0  0  0  0  0  0  0  0  0
    3.9000   -0.8250    0.0000 C   0  0  0  0  0  0  0  0  0  0  0  0
    4.4167    0.0833    0.0000 C   0  0  0  0  0  0  0  0  0  0  0  0
    3.9000   -0.2167    0.0000 C   0  0  0  0  0  0  0  0  0  0  0  0
  2  1  1  0  0  0  0
  3  7  1  0  0  0  0
  3  6  2  0  0  0  0
  4  1  2  0  0  0  0
  5  1  2  0  0  0  0
  6 11  1  0  0  0  0
  7  2  2  0  0  0  0
  8  1  1  0  0  0  0
  9  2  1  0  0  0  0
 10  6  1  0  0  0  0
 11  9  2  0  0  0  0
 12 10  1  0  0  0  0
 13 12  2  0  0  0  0
 14 12  1  0  0  0  0
 15 13  1  0  0  0  0
 15 17  2  0  0  0  0
 16 14  2  0  0  0  0
 17 16  1  0  0  0  0
M  END
>  <MOLFORMULA>
C11 H8 Cl N O3 S

>  <MOLWEIGHT>
2.697072000000000e+002

>  <code>
CC19603

>  <appearance>
solid

>  <purity>
95%

>  <product_name>
6-phenoxy-3-pyridinesulfonyl chloride

>  <cansmi>
ClS(=O)(=O)c1ccc(nc1)Oc1ccccc1

>  <HBA2>
4

>  <HBD>
0

>  <logP>
3.8822

>  <TPSA>
64.64

>  <MW>
269.704

$$$$

 OpenBabel02131620232D

 16 17  0  0  0  0  0  0  0  0999 V2000
    5.1718   -5.3801    0.0000 O   0  0  0  0  0  0  0  0  0  0  0  0
    5.8206   -5.7551    0.0000 S   0  0  0  0  0  0  0  0  0  0  0  0
    6.4735   -5.3801    0.0000 O   0  0  0  0  0  0  0  0  0  0  0  0
    1.9402   -7.2708    0.0000 C   0  0  0  0  0  0  0  0  0  0  0  0
    1.9391   -8.0232    0.0000 C   0  0  0  0  0  0  0  0  0  0  0  0
    2.5872   -8.3985    0.0000 C   0  0  0  0  0  0  0  0  0  0  0  0
    3.2370   -8.0227    0.0000 C   0  0  0  0  0  0  0  0  0  0  0  0
    3.2341   -7.2672    0.0000 C   0  0  0  0  0  0  0  0  0  0  0  0
    2.5854   -6.8955    0.0000 C   0  0  0  0  0  0  0  0  0  0  0  0
    3.8815   -6.8897    0.0000 C   0  0  0  0  0  0  0  0  0  0  0  0
    4.5292   -7.2650    0.0000 N   0  0  0  0  0  0  0  0  0  0  0  0
    5.1803   -6.8881    0.0000 C   0  0  0  0  0  0  0  0  0  0  0  0
    5.1736   -6.1332    0.0000 C   0  0  0  0  0  0  0  0  0  0  0  0
    4.5197   -5.7650    0.0000 C   0  0  0  0  0  0  0  0  0  0  0  0
    3.8749   -6.1437    0.0000 C   0  0  0  0  0  0  0  0  0  0  0  0
    6.4753   -6.1269    0.0000 Cl  0  0  0  0  0  0  0  0  0  0  0  0
  1  2  2  0  0  0  0
  2  3  2  0  0  0  0
  2 16  1  0  0  0  0
  4  5  2  0  0  0  0
  5  6  1  0  0  0  0
  6  7  2  0  0  0  0
  7  8  1  0  0  0  0
  8  9  2  0  0  0  0
  8 10  1  0  0  0  0
  9  4  1  0  0  0  0
 10 11  2  0  0  0  0
 11 12  1  0  0  0  0
 12 13  2  0  0  0  0
 13 14  1  0  0  0  0
 13  2  1  0  0  0  0
 14 15  2  0  0  0  0
 15 10  1  0  0  0  0
M  END
>  <MOLFORMULA>
C11 H8 Cl N O2 S

>  <MOLWEIGHT>
2.537080000000000e+002

>  <code>
CC21103

>  <appearance>
Solid

>  <purity>
97%

>  <product_name>
6-phenyl-3-pyridinesulfonyl chloride

>  <cansmi>
ClS(=O)(=O)c1ccc(nc1)c1ccccc1

>  <HBA2>
3

>  <HBD>
0

>  <logP>
3.7569

>  <TPSA>
55.41

>  <MW>
253.705

$$$$

 OpenBabel02131620232D

 16 16  0  0  0  0  0  0  0  0999 V2000
   -0.6917   -0.4750    0.0000 N   0  0  0  0  0  0  0  0  0  0  0  0
   -0.0224    0.0075    0.0000 C   0  0  0  0  0  0  0  0  0  0  0  0
   -0.2792    0.7958    0.0000 C   0  0  0  0  0  0  0  0  0  0  0  0
   -1.1042    0.7958    0.0000 C   0  0  0  0  0  0  0  0  0  0  0  0
   -1.3610    0.0075    0.0000 C   0  0  0  0  0  0  0  0  0  0  0  0
   -1.5888    1.4634    0.0000 C   0  0  0  0  0  0  0  0  0  0  0  0
    0.7619   -0.2486    0.0000 C   0  0  0  0  0  0  0  0  0  0  0  0
   -2.1452   -0.2486    0.0000 C   0  0  0  0  0  0  0  0  0  0  0  0
   -2.7591    0.3025    0.0000 O   0  0  0  0  0  0  0  0  0  0  0  0
   -2.3155   -1.0558    0.0000 O   0  0  0  0  0  0  0  0  0  0  0  0
   -2.5888    1.1097    0.0000 C   0  0  0  0  0  0  0  0  0  0  0  0
   -3.2027    1.6609    0.0000 C   0  0  0  0  0  0  0  0  0  0  0  0
    0.2055    1.4634    0.0000 S   0  0  0  0  0  0  0  0  0  0  0  0
   -0.5125    1.8792    0.0000 O   0  0  0  0  0  0  0  0  0  0  0  0
    0.7875    2.0542    0.0000 O   0  0  0  0  0  0  0  0  0  0  0  0
    0.9296    1.0681    0.0000 Cl  0  0  0  0  0  0  0  0  0  0  0  0
  1  2  1  0  0  0  0
  2  7  1  0  0  0  0
  2  3  2  0  0  0  0
  3  4  1  0  0  0  0
  3 13  1  0  0  0  0
  4  6  1  0  0  0  0
  4  5  2  0  0  0  0
  5  8  1  0  0  0  0
  5  1  1  0  0  0  0
  8  9  1  0  0  0  0
  8 10  2  0  0  0  0
  9 11  1  0  0  0  0
 11 12  1  0  0  0  0
 13 14  2  0  0  0  0
 13 15  2  0  0  0  0
 13 16  1  0  0  0  0
M  END
>  <MOLFORMULA>
C9 H12 Cl N O4 S

>  <MOLWEIGHT>
2.657158000000000e+002

>  <code>
CC23003

>  <appearance>
solid

>  <purity>
97%

>  <product_name>
ethyl 4-(chlorosulfonyl)-3,5-dimethyl-1H-pyrrole-2-carboxylate

>  <cansmi>
CCOC(=O)c1[nH]c(c(c1C)S(=O)(=O)Cl)C

>  <HBA2>
4

>  <HBD>
1

>  <logP>
2.8165

>  <TPSA>
84.61

>  <MW>
265.714

$$$$

 OpenBabel02131620232D

 16 17  0  0  0  0  0  0  0  0999 V2000
    4.8044   -2.1838    0.0000 C   0  0  0  0  0  0  0  0  0  0  0  0
    5.5203   -2.5986    0.0000 C   0  0  0  0  0  0  0  0  0  0  0  0
    6.2353   -2.1862    0.0000 C   0  0  0  0  0  0  0  0  0  0  0  0
    6.2358   -1.3590    0.0000 C   0  0  0  0  0  0  0  0  0  0  0  0
    5.5152   -0.9461    0.0000 C   0  0  0  0  0  0  0  0  0  0  0  0
    4.8031   -1.3609    0.0000 C   0  0  0  0  0  0  0  0  0  0  0  0
    4.0899   -2.5963    0.0000 C   0  0  0  0  0  0  0  0  0  0  0  0
    6.9497   -0.9456    0.0000 S   0  0  0  0  0  0  0  0  0  0  0  0
    3.3346   -2.2551    0.0000 C   0  0  0  0  0  0  0  0  0  0  0  0
    2.7826   -2.8682    0.0000 C   0  0  0  0  0  0  0  0  0  0  0  0
    3.1951   -3.5827    0.0000 N   0  0  0  0  0  0  0  0  0  0  0  0
    4.0020   -3.4111    0.0000 N   0  0  0  0  0  0  0  0  0  0  0  0
    2.8596   -4.3364    0.0000 C   0  0  0  0  0  0  0  0  0  0  0  0
    7.6647   -1.3571    0.0000 Cl  0  0  0  0  0  0  0  0  0  0  0  0
    6.2292   -0.5292    0.0000 O   0  0  0  0  0  0  0  0  0  0  0  0
    7.6583   -0.5250    0.0000 O   0  0  0  0  0  0  0  0  0  0  0  0
  1  2  2  0  0  0  0
  1  7  1  0  0  0  0
  2  3  1  0  0  0  0
  3  4  2  0  0  0  0
  4  8  1  0  0  0  0
  4  5  1  0  0  0  0
  5  6  2  0  0  0  0
  6  1  1  0  0  0  0
  7  9  1  0  0  0  0
  8 14  1  0  0  0  0
  8 15  2  0  0  0  0
  8 16  2  0  0  0  0
  9 10  2  0  0  0  0
 10 11  1  0  0  0  0
 11 12  1  0  0  0  0
 11 13  1  0  0  0  0
 12  7  2  0  0  0  0
M  END
>  <MOLFORMULA>
C10 H9 Cl N2 O2 S

>  <MOLWEIGHT>
2.567121000000000e+002

>  <code>
CC23803

>  <appearance>
Solid

>  <purity>
97%

>  <product_name>
4-(1-methyl-1H-pyrazol-3-yl)benzenesulfonyl chloride

>  <cansmi>
Cn1ccc(n1)c1ccc(cc1)S(=O)(=O)Cl

>  <HBA2>
4

>  <HBD>
0

>  <logP>
3.0954

>  <TPSA>
60.34

>  <MW>
256.709

$$$$

 OpenBabel02131620232D

 18 19  0  0  0  0  0  0  0  0999 V2000
    6.4875   -1.7875    0.0000 S   0  0  0  0  0  0  0  0  0  0  0  0
    4.3250   -2.2084    0.0000 C   0  0  0  0  0  0  0  0  0  0  0  0
    4.3333   -3.0375    0.0000 C   0  0  0  0  0  0  0  0  0  0  0  0
    5.7667   -2.2084    0.0000 C   0  0  0  0  0  0  0  0  0  0  0  0
    5.0417   -1.7875    0.0000 C   0  0  0  0  0  0  0  0  0  0  0  0
    3.6167   -1.7875    0.0000 C   0  0  0  0  0  0  0  0  0  0  0  0
    3.6208   -3.4500    0.0000 C   0  0  0  0  0  0  0  0  0  0  0  0
    5.0417   -3.4542    0.0000 C   0  0  0  0  0  0  0  0  0  0  0  0
    7.2042   -1.3750    0.0000 O   0  0  0  0  0  0  0  0  0  0  0  0
    5.7667   -1.3750    0.0000 O   0  0  0  0  0  0  0  0  0  0  0  0
    7.2084   -2.2125    0.0000 Cl  0  0  0  0  0  0  0  0  0  0  0  0
    5.7667   -3.0417    0.0000 C   0  0  0  0  0  0  0  0  0  0  0  0
    2.8959   -2.2125    0.0000 C   0  0  0  0  0  0  0  0  0  0  0  0
    2.9000   -3.0417    0.0000 C   0  0  0  0  0  0  0  0  0  0  0  0
    2.8959   -1.3750    0.0000 C   0  0  0  0  0  0  0  0  0  0  0  0
    4.3250   -1.3750    0.0000 C   0  0  0  0  0  0  0  0  0  0  0  0
    2.9042   -3.8667    0.0000 C   0  0  0  0  0  0  0  0  0  0  0  0
    4.3375   -3.8667    0.0000 C   0  0  0  0  0  0  0  0  0  0  0  0
  2  5  1  0  0  0  0
  2  3  2  0  0  0  0
  3  8  1  0  0  0  0
  4  1  1  0  0  0  0
  5  4  2  0  0  0  0
  6  2  1  0  0  0  0
  7  3  1  0  0  0  0
  8 12  2  0  0  0  0
  9  1  2  0  0  0  0
 10  1  2  0  0  0  0
 11  1  1  0  0  0  0
 12  4  1  0  0  0  0
 13  6  1  0  0  0  0
 14  7  1  0  0  0  0
 14 13  1  0  0  0  0
 15  6  1  0  0  0  0
 16  6  1  0  0  0  0
 17  7  1  0  0  0  0
 18  7  1  0  0  0  0
M  END
>  <MOLFORMULA>
C14 H19 Cl O2 S

>  <MOLWEIGHT>
2.868211000000000e+002

>  <code>
CC27103

>  <appearance>
solid

>  <purity>
97%

>  <product_name>
5,5,8,8-tetramethyl-5,6,7,8-tetrahydro-2-naphthalenesulfonyl chloride

>  <cansmi>
CC1(C)CCC(c2c1cc(cc2)S(=O)(=O)Cl)(C)C

>  <HBA2>
2

>  <HBD>
0

>  <logP>
5.0439

>  <TPSA>
42.52

>  <MW>
286.817

$$$$

 OpenBabel02131620232D

 16 17  0  0  0  0  0  0  0  0999 V2000
   -0.2250   -0.1000    0.0000 S   0  0  0  0  0  0  0  0  0  0  0  0
    0.4443    0.3825    0.0000 C   0  0  0  0  0  0  0  0  0  0  0  0
    0.1875    1.1708    0.0000 C   0  0  0  0  0  0  0  0  0  0  0  0
   -0.6375    1.1708    0.0000 N   0  0  0  0  0  0  0  0  0  0  0  0
   -0.8943    0.3825    0.0000 C   0  0  0  0  0  0  0  0  0  0  0  0
   -1.6785    0.1264    0.0000 C   0  0  0  0  0  0  0  0  0  0  0  0
   -2.2889    0.6789    0.0000 C   0  0  0  0  0  0  0  0  0  0  0  0
   -3.0725    0.4234    0.0000 C   0  0  0  0  0  0  0  0  0  0  0  0
   -3.2435   -0.3846    0.0000 C   0  0  0  0  0  0  0  0  0  0  0  0
   -2.6246   -0.9366    0.0000 C   0  0  0  0  0  0  0  0  0  0  0  0
   -1.8434   -0.6781    0.0000 C   0  0  0  0  0  0  0  0  0  0  0  0
    0.6722    1.8384    0.0000 C   0  0  0  0  0  0  0  0  0  0  0  0
    1.2285    0.1264    0.0000 S   0  0  0  0  0  0  0  0  0  0  0  0
    1.8425    0.6775    0.0000 Cl  0  0  0  0  0  0  0  0  0  0  0  0
    0.8083   -0.5833    0.0000 O   0  0  0  0  0  0  0  0  0  0  0  0
    1.9375   -0.2833    0.0000 O   0  0  0  0  0  0  0  0  0  0  0  0
  1  2  1  0  0  0  0
  2 13  1  0  0  0  0
  2  3  2  0  0  0  0
  3  4  1  0  0  0  0
  3 12  1  0  0  0  0
  4  5  2  0  0  0  0
  5  1  1  0  0  0  0
  5  6  1  0  0  0  0
  6  7  2  0  0  0  0
  7  8  1  0  0  0  0
  8  9  2  0  0  0  0
  9 10  1  0  0  0  0
 10 11  2  0  0  0  0
 11  6  1  0  0  0  0
 13 14  1  0  0  0  0
 13 15  2  0  0  0  0
 13 16  2  0  0  0  0
M  END
>  <MOLFORMULA>
C10 H8 Cl N O2 S2

>  <MOLWEIGHT>
2.737632000000000e+002

>  <code>
CC29203

>  <appearance>
solid

>  <purity>
TECH

>  <product_name>
4-methyl-2-phenyl-1,3-thiazole-5-sulfonyl chloride

>  <cansmi>
Cc1nc(sc1S(=O)(=O)Cl)c1ccccc1

>  <HBA2>
4

>  <HBD>
0

>  <logP>
4.1268

>  <TPSA>
83.65

>  <MW>
273.759

$$$$

 OpenBabel02131620232D

 17 18  0  0  0  0  0  0  0  0999 V2000
    3.8292    0.0000    0.0000 S   0  0  0  0  0  0  0  0  0  0  0  0
    1.2125   -0.1958    0.0000 N   0  0  0  0  0  0  0  0  0  0  0  0
    3.3000   -0.2792    0.0000 C   0  0  0  0  0  0  0  0  0  0  0  0
    1.7417    0.0833    0.0000 C   0  0  0  0  0  0  0  0  0  0  0  0
    2.7875    0.0458    0.0000 C   0  0  0  0  0  0  0  0  0  0  0  0
    2.2500   -0.2333    0.0000 C   0  0  0  0  0  0  0  0  0  0  0  0
    0.7000    0.1250    0.0000 C   0  0  0  0  0  0  0  0  0  0  0  0
    3.3083    0.3083    0.0000 O   0  0  0  0  0  0  0  0  0  0  0  0
    4.3542    0.3083    0.0000 O   0  0  0  0  0  0  0  0  0  0  0  0
    0.7250    0.7292    0.0000 N   0  0  0  0  0  0  0  0  0  0  0  0
    4.3458   -0.3167    0.0000 Cl  0  0  0  0  0  0  0  0  0  0  0  0
    1.7667    0.6875    0.0000 C   0  0  0  0  0  0  0  0  0  0  0  0
    1.2583    1.0125    0.0000 C   0  0  0  0  0  0  0  0  0  0  0  0
    3.2792   -0.8792    0.0000 C   0  0  0  0  0  0  0  0  0  0  0  0
    2.2292   -0.8375    0.0000 C   0  0  0  0  0  0  0  0  0  0  0  0
    2.7458   -1.1625    0.0000 C   0  0  0  0  0  0  0  0  0  0  0  0
    0.1708   -0.1542    0.0000 C   0  0  0  0  0  0  0  0  0  0  0  0
  2  4  1  0  0  0  0
  3  1  1  0  0  0  0
  4  6  1  0  0  0  0
  5  3  2  0  0  0  0
  6  5  1  0  0  0  0
  6 15  2  0  0  0  0
  7  2  2  0  0  0  0
  7 10  1  0  0  0  0
  8  1  2  0  0  0  0
  9  1  2  0  0  0  0
 10 13  2  0  0  0  0
 11  1  1  0  0  0  0
 12  4  2  0  0  0  0
 13 12  1  0  0  0  0
 14  3  1  0  0  0  0
 15 16  1  0  0  0  0
 16 14  2  0  0  0  0
 17  7  1  0  0  0  0
M  END
>  <MOLFORMULA>
C11 H9 Cl N2 O2 S

>  <MOLWEIGHT>
2.687231000000000e+002

>  <code>
CC31603

>  <appearance>
solid

>  <purity>
95%

>  <product_name>
3-(2-methyl-4-pyrimidinyl)benzenesulfonyl chloride

>  <cansmi>
Cc1nccc(n1)c1cccc(c1)S(=O)(=O)Cl

>  <HBA2>
4

>  <HBD>
0

>  <logP>
3.4603

>  <TPSA>
68.3

>  <MW>
268.719

$$$$

 OpenBabel02131620232D

 16 17  0  0  0  0  0  0  0  0999 V2000
    4.3796   -2.2907    0.0000 C   0  0  0  0  0  0  0  0  0  0  0  0
    3.6239   -2.6228    0.0000 N   0  0  0  0  0  0  0  0  0  0  0  0
    3.0729   -2.0076    0.0000 C   0  0  0  0  0  0  0  0  0  0  0  0
    3.4933   -1.2921    0.0000 O   0  0  0  0  0  0  0  0  0  0  0  0
    4.2990   -1.4697    0.0000 N   0  0  0  0  0  0  0  0  0  0  0  0
    2.2506   -2.0873    0.0000 C   0  0  0  0  0  0  0  0  0  0  0  0
    5.0914   -2.7054    0.0000 C   0  0  0  0  0  0  0  0  0  0  0  0
    5.8063   -2.2908    0.0000 C   0  0  0  0  0  0  0  0  0  0  0  0
    6.5156   -2.7103    0.0000 C   0  0  0  0  0  0  0  0  0  0  0  0
    6.5132   -3.5358    0.0000 C   0  0  0  0  0  0  0  0  0  0  0  0
    5.7917   -3.9418    0.0000 C   0  0  0  0  0  0  0  0  0  0  0  0
    5.0817   -3.5257    0.0000 C   0  0  0  0  0  0  0  0  0  0  0  0
    7.2317   -2.2997    0.0000 S   0  0  0  0  0  0  0  0  0  0  0  0
    6.5125   -1.8833    0.0000 O   0  0  0  0  0  0  0  0  0  0  0  0
    7.8125   -1.7083    0.0000 O   0  0  0  0  0  0  0  0  0  0  0  0
    7.9417   -2.7083    0.0000 Cl  0  0  0  0  0  0  0  0  0  0  0  0
  1  2  1  0  0  0  0
  1  7  1  0  0  0  0
  2  3  2  0  0  0  0
  3  6  1  0  0  0  0
  3  4  1  0  0  0  0
  4  5  1  0  0  0  0
  5  1  2  0  0  0  0
  7  8  2  0  0  0  0
  8  9  1  0  0  0  0
  9 10  2  0  0  0  0
  9 13  1  0  0  0  0
 10 11  1  0  0  0  0
 11 12  2  0  0  0  0
 12  7  1  0  0  0  0
 13 14  2  0  0  0  0
 13 15  2  0  0  0  0
 13 16  1  0  0  0  0
M  END
>  <MOLFORMULA>
C9 H7 Cl N2 O3 S

>  <MOLWEIGHT>
2.586843000000000e+002

>  <code>
CC39103

>  <appearance>
Solid

>  <purity>
Tech

>  <product_name>
3-(5-methyl-1,2,4-oxadiazol-3-yl)benzenesulfonyl chloride

>  <cansmi>
Cc1onc(n1)c1cccc(c1)S(=O)(=O)Cl

>  <HBA2>
5

>  <HBD>
0

>  <logP>
3.0533

>  <TPSA>
81.44

>  <MW>
258.681

$$$$

 OpenBabel02131620232D

 16 17  0  0  0  0  0  0  0  0999 V2000
   -1.4493    0.2181    0.0000 C   0  0  0  0  0  0  0  0  0  0  0  0
   -0.7379   -0.1984    0.0000 C   0  0  0  0  0  0  0  0  0  0  0  0
   -0.0174    0.2059    0.0000 C   0  0  0  0  0  0  0  0  0  0  0  0
   -0.7512   -1.0196    0.0000 C   0  0  0  0  0  0  0  0  0  0  0  0
    0.6864   -1.0481    0.0000 C   0  0  0  0  0  0  0  0  0  0  0  0
    0.6944   -0.2148    0.0000 C   0  0  0  0  0  0  0  0  0  0  0  0
   -0.0511   -1.4498    0.0000 C   0  0  0  0  0  0  0  0  0  0  0  0
    1.3937   -1.4728    0.0000 S   0  0  0  0  0  0  0  0  0  0  0  0
    2.1152   -1.0727    0.0000 Cl  0  0  0  0  0  0  0  0  0  0  0  0
   -1.5289    1.0379    0.0000 C   0  0  0  0  0  0  0  0  0  0  0  0
   -2.3342    1.2141    0.0000 S   0  0  0  0  0  0  0  0  0  0  0  0
   -2.7507    0.5027    0.0000 C   0  0  0  0  0  0  0  0  0  0  0  0
   -2.2027   -0.1132    0.0000 N   0  0  0  0  0  0  0  0  0  0  0  0
   -3.5717    0.4214    0.0000 C   0  0  0  0  0  0  0  0  0  0  0  0
    0.8042   -2.0542    0.0000 O   0  0  0  0  0  0  0  0  0  0  0  0
    2.1042   -1.8833    0.0000 O   0  0  0  0  0  0  0  0  0  0  0  0
  1 10  2  0  0  0  0
  2  1  1  0  0  0  0
  3  2  2  0  0  0  0
  4  2  1  0  0  0  0
  5  6  2  0  0  0  0
  5  8  1  0  0  0  0
  5  7  1  0  0  0  0
  6  3  1  0  0  0  0
  7  4  2  0  0  0  0
  8  9  1  0  0  0  0
  8 15  2  0  0  0  0
  8 16  2  0  0  0  0
 10 11  1  0  0  0  0
 11 12  1  0  0  0  0
 12 13  2  0  0  0  0
 12 14  1  0  0  0  0
 13  1  1  0  0  0  0
M  END
>  <MOLFORMULA>
C10 H8 Cl N O2 S2

>  <MOLWEIGHT>
2.737632000000000e+002

>  <code>
CC40303

>  <appearance>
Solid

>  <purity>
97%

>  <product_name>
4-(2-methyl-1,3-thiazol-4-yl)benzenesulfonyl chloride

>  <cansmi>
Cc1scc(n1)c1ccc(cc1)S(=O)(=O)Cl

>  <HBA2>
4

>  <HBD>
0

>  <logP>
4.1268

>  <TPSA>
83.65

>  <MW>
273.759

$$$$

 OpenBabel02131620232D

 14 15  0  0  0  0  0  0  0  0999 V2000
    5.7348   -2.2542    0.0000 C   0  0  0  0  0  0  0  0  0  0  0  0
    5.7359   -3.0815    0.0000 C   0  0  0  0  0  0  0  0  0  0  0  0
    5.0253   -3.4944    0.0000 C   0  0  0  0  0  0  0  0  0  0  0  0
    5.0271   -1.8372    0.0000 C   0  0  0  0  0  0  0  0  0  0  0  0
    4.3117   -2.2505    0.0000 C   0  0  0  0  0  0  0  0  0  0  0  0
    4.3107   -3.0814    0.0000 C   0  0  0  0  0  0  0  0  0  0  0  0
    3.5175   -3.3386    0.0000 N   0  0  0  0  0  0  0  0  0  0  0  0
    3.0288   -2.6645    0.0000 C   0  0  0  0  0  0  0  0  0  0  0  0
    3.5191   -1.9874    0.0000 C   0  0  0  0  0  0  0  0  0  0  0  0
    3.2604   -4.1215    0.0000 C   0  0  0  0  0  0  0  0  0  0  0  0
    6.4525   -1.8367    0.0000 S   0  0  0  0  0  0  0  0  0  0  0  0
    7.1683   -2.2468    0.0000 Cl  0  0  0  0  0  0  0  0  0  0  0  0
    5.8625   -1.2458    0.0000 O   0  0  0  0  0  0  0  0  0  0  0  0
    7.0333   -1.2458    0.0000 O   0  0  0  0  0  0  0  0  0  0  0  0
  1 11  1  0  0  0  0
  1  2  1  0  0  0  0
  2  3  2  0  0  0  0
  3  6  1  0  0  0  0
  4  1  2  0  0  0  0
  5  6  2  0  0  0  0
  5  4  1  0  0  0  0
  6  7  1  0  0  0  0
  7  8  1  0  0  0  0
  7 10  1  0  0  0  0
  8  9  2  0  0  0  0
  9  5  1  0  0  0  0
 11 12  1  0  0  0  0
 11 13  2  0  0  0  0
 11 14  2  0  0  0  0
M  END
>  <MOLFORMULA>
C9 H8 Cl N O2 S

>  <MOLWEIGHT>
2.296862000000000e+002

>  <code>
CC41403

>  <appearance>
Solid

>  <purity>
90%

>  <product_name>
1-methyl-1H-indole-5-sulfonyl chloride

>  <cansmi>
Cn1ccc2c1ccc(c2)S(=O)(=O)Cl

>  <HBA2>
3

>  <HBD>
0

>  <logP>
3.1866

>  <TPSA>
47.45

>  <MW>
229.683

$$$$

 OpenBabel02131620232D

 21 23  0  0  0  0  0  0  0  0999 V2000
    6.6164   -0.5203    0.0000 C   0  0  0  0  0  0  0  0  0  0  0  0
    7.4597   -0.6113    0.0000 C   0  0  0  0  0  0  0  0  0  0  0  0
    7.7975   -1.3589    0.0000 C   0  0  0  0  0  0  0  0  0  0  0  0
    7.3064   -2.0092    0.0000 C   0  0  0  0  0  0  0  0  0  0  0  0
    6.4604   -1.9139    0.0000 C   0  0  0  0  0  0  0  0  0  0  0  0
    6.1255   -1.1744    0.0000 C   0  0  0  0  0  0  0  0  0  0  0  0
    5.9569   -2.5606    0.0000 C   0  0  0  0  0  0  0  0  0  0  0  0
    6.2009   -3.3411    0.0000 C   0  0  0  0  0  0  0  0  0  0  0  0
    5.5189   -3.8071    0.0000 S   0  0  0  0  0  0  0  0  0  0  0  0
    4.8410   -3.3212    0.0000 C   0  0  0  0  0  0  0  0  0  0  0  0
    5.1071   -2.5483    0.0000 N   0  0  0  0  0  0  0  0  0  0  0  0
    4.0373   -3.5568    0.0000 C   0  0  0  0  0  0  0  0  0  0  0  0
    3.8586   -4.3463    0.0000 C   0  0  0  0  0  0  0  0  0  0  0  0
    3.0596   -4.5824    0.0000 C   0  0  0  0  0  0  0  0  0  0  0  0
    2.4323   -4.0313    0.0000 C   0  0  0  0  0  0  0  0  0  0  0  0
    2.6203   -3.2352    0.0000 C   0  0  0  0  0  0  0  0  0  0  0  0
    3.4192   -3.0012    0.0000 C   0  0  0  0  0  0  0  0  0  0  0  0
    6.9803   -3.6117    0.0000 S   0  0  0  0  0  0  0  0  0  0  0  0
    7.5625   -3.0208    0.0000 Cl  0  0  0  0  0  0  0  0  0  0  0  0
    6.5625   -4.3208    0.0000 O   0  0  0  0  0  0  0  0  0  0  0  0
    7.6917   -4.0208    0.0000 O   0  0  0  0  0  0  0  0  0  0  0  0
  1  2  2  0  0  0  0
  2  3  1  0  0  0  0
  3  4  2  0  0  0  0
  4  5  1  0  0  0  0
  5  6  2  0  0  0  0
  5  7  1  0  0  0  0
  6  1  1  0  0  0  0
  7  8  2  0  0  0  0
  8  9  1  0  0  0  0
  8 18  1  0  0  0  0
  9 10  1  0  0  0  0
 10 12  1  0  0  0  0
 10 11  2  0  0  0  0
 11  7  1  0  0  0  0
 12 13  2  0  0  0  0
 13 14  1  0  0  0  0
 14 15  2  0  0  0  0
 15 16  1  0  0  0  0
 16 17  2  0  0  0  0
 17 12  1  0  0  0  0
 18 19  1  0  0  0  0
 18 20  2  0  0  0  0
 18 21  2  0  0  0  0
M  END
>  <MOLFORMULA>
C15 H10 Cl N O2 S2

>  <MOLWEIGHT>
3.358340000000000e+002

>  <code>
CC42303

>  <appearance>
Solid

>  <purity>
97%

>  <product_name>
2,4-diphenyl-1,3-thiazole-5-sulfonyl chloride

>  <cansmi>
ClS(=O)(=O)c1sc(nc1c1ccccc1)c1ccccc1

>  <HBA2>
4

>  <HBD>
0

>  <logP>
5.4854

>  <TPSA>
83.65

>  <MW>
335.828

$$$$

 OpenBabel02131620232D

 14 15  0  0  0  0  0  0  0  0999 V2000
    5.6414   -3.8944    0.0000 C   0  0  0  0  0  0  0  0  0  0  0  0
    6.3536   -3.4811    0.0000 C   0  0  0  0  0  0  0  0  0  0  0  0
    6.3508   -2.6714    0.0000 C   0  0  0  0  0  0  0  0  0  0  0  0
    5.6396   -2.2580    0.0000 C   0  0  0  0  0  0  0  0  0  0  0  0
    5.6321   -1.4375    0.0000 S   0  0  0  0  0  0  0  0  0  0  0  0
    4.9325   -3.4873    0.0000 C   0  0  0  0  0  0  0  0  0  0  0  0
    4.9374   -2.6732    0.0000 C   0  0  0  0  0  0  0  0  0  0  0  0
    4.1634   -2.4163    0.0000 C   0  0  0  0  0  0  0  0  0  0  0  0
    3.6830   -3.0726    0.0000 C   0  0  0  0  0  0  0  0  0  0  0  0
    4.1554   -3.7347    0.0000 N   0  0  0  0  0  0  0  0  0  0  0  0
    3.8872   -4.5386    0.0000 C   0  0  0  0  0  0  0  0  0  0  0  0
    6.3677   -1.0058    0.0000 Cl  0  0  0  0  0  0  0  0  0  0  0  0
    4.7792   -1.4375    0.0000 O   0  0  0  0  0  0  0  0  0  0  0  0
    5.6250   -0.5875    0.0000 O   0  0  0  0  0  0  0  0  0  0  0  0
  1  2  2  0  0  0  0
  2  3  1  0  0  0  0
  3  4  2  0  0  0  0
  4  7  1  0  0  0  0
  4  5  1  0  0  0  0
  5 12  1  0  0  0  0
  5 13  2  0  0  0  0
  5 14  2  0  0  0  0
  6  1  1  0  0  0  0
  6  7  2  0  0  0  0
  7  8  1  0  0  0  0
  8  9  2  0  0  0  0
  9 10  1  0  0  0  0
 10  6  1  0  0  0  0
 10 11  1  0  0  0  0
M  END
>  <MOLFORMULA>
C9 H8 Cl N O2 S

>  <MOLWEIGHT>
2.296862000000000e+002

>  <code>
CC45803

>  <appearance>
Solid

>  <purity>
97%

>  <product_name>
1-methyl-1H-indole-4-sulfonyl chloride

>  <cansmi>
Cn1ccc2c1cccc2S(=O)(=O)Cl

>  <HBA2>
3

>  <HBD>
0

>  <logP>
3.1866

>  <TPSA>
47.45

>  <MW>
229.683

$$$$

 OpenBabel02131620232D

 15 16  0  0  0  0  0  0  0  0999 V2000
    5.7889   -2.0875    0.0000 C   0  0  0  0  0  0  0  0  0  0  0  0
    5.7901   -2.9107    0.0000 C   0  0  0  0  0  0  0  0  0  0  0  0
    5.0711   -3.3235    0.0000 C   0  0  0  0  0  0  0  0  0  0  0  0
    5.0729   -1.6747    0.0000 C   0  0  0  0  0  0  0  0  0  0  0  0
    4.3617   -2.0838    0.0000 C   0  0  0  0  0  0  0  0  0  0  0  0
    4.3618   -2.9120    0.0000 C   0  0  0  0  0  0  0  0  0  0  0  0
    3.6471   -3.3225    0.0000 N   0  0  0  0  0  0  0  0  0  0  0  0
    2.9331   -2.9122    0.0000 C   0  0  0  0  0  0  0  0  0  0  0  0
    2.9330   -2.0840    0.0000 C   0  0  0  0  0  0  0  0  0  0  0  0
    3.6469   -1.6744    0.0000 O   0  0  0  0  0  0  0  0  0  0  0  0
    2.2125   -3.3292    0.0000 O   0  0  0  0  0  0  0  0  0  0  0  0
    6.5102   -3.3307    0.0000 S   0  0  0  0  0  0  0  0  0  0  0  0
    6.9316   -2.6083    0.0000 Cl  0  0  0  0  0  0  0  0  0  0  0  0
    7.2304   -3.7500    0.0000 O   0  0  0  0  0  0  0  0  0  0  0  0
    6.0904   -4.0518    0.0000 O   0  0  0  0  0  0  0  0  0  0  0  0
  1  2  1  0  0  0  0
  2 12  1  0  0  0  0
  2  3  2  0  0  0  0
  3  6  1  0  0  0  0
  4  1  2  0  0  0  0
  5  4  1  0  0  0  0
  5 10  1  0  0  0  0
  5  6  2  0  0  0  0
  6  7  1  0  0  0  0
  7  8  1  0  0  0  0
  8  9  1  0  0  0  0
  8 11  2  0  0  0  0
  9 10  1  0  0  0  0
 12 13  1  0  0  0  0
 12 14  2  0  0  0  0
 12 15  2  0  0  0  0
M  END
>  <MOLFORMULA>
C8 H6 Cl N O4 S

>  <MOLWEIGHT>
2.476574000000000e+002

>  <code>
CC46803

>  <appearance>
Solid

>  <purity>
97%

>  <product_name>
3-oxo-3,4-dihydro-2H-1,4-benzoxazine-6-sulfonyl chloride

>  <cansmi>
O=C1COc2c(N1)cc(cc2)S(=O)(=O)Cl

>  <HBA2>
5

>  <HBD>
1

>  <logP>
2.1638

>  <TPSA>
80.85

>  <MW>
247.656

$$$$

 OpenBabel02131620232D

 17 18  0  0  0  0  0  0  0  0999 V2000
    4.7250   -2.6792    0.0000 N   0  0  0  0  0  0  0  0  0  0  0  0
    4.0432   -2.2217    0.0000 N   0  0  0  0  0  0  0  0  0  0  0  0
    4.2625   -1.4292    0.0000 C   0  0  0  0  0  0  0  0  0  0  0  0
    5.0750   -1.3917    0.0000 C   0  0  0  0  0  0  0  0  0  0  0  0
    5.3693   -2.1634    0.0000 C   0  0  0  0  0  0  0  0  0  0  0  0
    6.1702   -2.3861    0.0000 C   0  0  0  0  0  0  0  0  0  0  0  0
    3.7529   -0.7741    0.0000 C   0  0  0  0  0  0  0  0  0  0  0  0
    4.7250   -3.5083    0.0000 C   0  0  0  0  0  0  0  0  0  0  0  0
    5.4419   -3.9190    0.0000 C   0  0  0  0  0  0  0  0  0  0  0  0
    5.4422   -4.7474    0.0000 C   0  0  0  0  0  0  0  0  0  0  0  0
    4.7272   -5.1607    0.0000 C   0  0  0  0  0  0  0  0  0  0  0  0
    4.0145   -4.7479    0.0000 C   0  0  0  0  0  0  0  0  0  0  0  0
    4.0135   -3.9167    0.0000 C   0  0  0  0  0  0  0  0  0  0  0  0
    5.5305   -0.6949    0.0000 S   0  0  0  0  0  0  0  0  0  0  0  0
    6.3543   -0.7406    0.0000 Cl  0  0  0  0  0  0  0  0  0  0  0  0
    4.8125   -0.2792    0.0000 O   0  0  0  0  0  0  0  0  0  0  0  0
    5.9375    0.0250    0.0000 O   0  0  0  0  0  0  0  0  0  0  0  0
  1  2  1  0  0  0  0
  1  8  1  0  0  0  0
  2  3  2  0  0  0  0
  3  4  1  0  0  0  0
  3  7  1  0  0  0  0
  4  5  2  0  0  0  0
  4 14  1  0  0  0  0
  5  1  1  0  0  0  0
  5  6  1  0  0  0  0
  8  9  2  0  0  0  0
  9 10  1  0  0  0  0
 10 11  2  0  0  0  0
 11 12  1  0  0  0  0
 12 13  2  0  0  0  0
 13  8  1  0  0  0  0
 14 15  1  0  0  0  0
 14 16  2  0  0  0  0
 14 17  2  0  0  0  0
M  END
>  <MOLFORMULA>
C11 H11 Cl N2 O2 S

>  <MOLWEIGHT>
2.707389000000000e+002

>  <code>
CC48003

>  <appearance>
Solid

>  <purity>
Tech

>  <product_name>
3,5-dimethyl-1-phenyl-1H-pyrazole-4-sulfonyl chloride

>  <cansmi>
Cc1nn(c(c1S(=O)(=O)Cl)C)c1ccccc1

>  <HBA2>
4

>  <HBD>
0

>  <logP>
3.4974

>  <TPSA>
60.34

>  <MW>
270.735

$$$$

 OpenBabel02131620232D

 10 10  0  0  0  0  0  0  0  0999 V2000
    4.5792   -3.5083    0.0000 N   0  0  0  0  0  0  0  0  0  0  0  0
    5.2485   -3.0175    0.0000 N   0  0  0  0  0  0  0  0  0  0  0  0
    4.9833   -2.2292    0.0000 C   0  0  0  0  0  0  0  0  0  0  0  0
    4.1708   -2.2334    0.0000 C   0  0  0  0  0  0  0  0  0  0  0  0
    3.9140   -3.0217    0.0000 C   0  0  0  0  0  0  0  0  0  0  0  0
    4.5792   -4.3333    0.0000 C   0  0  0  0  0  0  0  0  0  0  0  0
    5.4597   -1.5449    0.0000 S   0  0  0  0  0  0  0  0  0  0  0  0
    4.7417   -1.1292    0.0000 O   0  0  0  0  0  0  0  0  0  0  0  0
    6.0417   -0.9542    0.0000 O   0  0  0  0  0  0  0  0  0  0  0  0
    6.1708   -1.9542    0.0000 Cl  0  0  0  0  0  0  0  0  0  0  0  0
  1  2  1  0  0  0  0
  1  6  1  0  0  0  0
  2  3  2  0  0  0  0
  3  7  1  0  0  0  0
  3  4  1  0  0  0  0
  4  5  2  0  0  0  0
  5  1  1  0  0  0  0
  7  8  2  0  0  0  0
  7  9  2  0  0  0  0
  7 10  1  0  0  0  0
M  END
>  <MOLFORMULA>
C4 H5 Cl N2 O2 S

>  <MOLWEIGHT>
1.806145000000000e+002

>  <code>
CC48303

>  <appearance>
Solid

>  <purity>
97%

>  <product_name>
1-methyl-1H-pyrazole-3-sulfonyl chloride

>  <cansmi>
Cn1ccc(n1)S(=O)(=O)Cl

>  <HBA2>
4

>  <HBD>
0

>  <logP>
1.4284

>  <TPSA>
60.34

>  <MW>
180.613

$$$$

 OpenBabel02131620232D

 14 15  0  0  0  0  0  0  0  0999 V2000
    6.1639   -2.3708    0.0000 C   0  0  0  0  0  0  0  0  0  0  0  0
    6.1651   -3.1982    0.0000 C   0  0  0  0  0  0  0  0  0  0  0  0
    5.4502   -3.6110    0.0000 C   0  0  0  0  0  0  0  0  0  0  0  0
    5.4520   -1.9580    0.0000 C   0  0  0  0  0  0  0  0  0  0  0  0
    4.7367   -2.3672    0.0000 C   0  0  0  0  0  0  0  0  0  0  0  0
    4.7318   -3.1936    0.0000 C   0  0  0  0  0  0  0  0  0  0  0  0
    3.9443   -3.4444    0.0000 N   0  0  0  0  0  0  0  0  0  0  0  0
    3.4624   -2.7729    0.0000 C   0  0  0  0  0  0  0  0  0  0  0  0
    3.9522   -2.1072    0.0000 C   0  0  0  0  0  0  0  0  0  0  0  0
    2.6374   -2.7681    0.0000 O   0  0  0  0  0  0  0  0  0  0  0  0
    6.8785   -1.9585    0.0000 S   0  0  0  0  0  0  0  0  0  0  0  0
    7.5929   -2.3712    0.0000 Cl  0  0  0  0  0  0  0  0  0  0  0  0
    7.4583   -1.3708    0.0000 O   0  0  0  0  0  0  0  0  0  0  0  0
    6.2875   -1.3708    0.0000 O   0  0  0  0  0  0  0  0  0  0  0  0
  1 11  1  0  0  0  0
  1  2  1  0  0  0  0
  2  3  2  0  0  0  0
  3  6  1  0  0  0  0
  4  1  2  0  0  0  0
  5  6  2  0  0  0  0
  5  4  1  0  0  0  0
  6  7  1  0  0  0  0
  7  8  1  0  0  0  0
  8  9  1  0  0  0  0
  8 10  2  0  0  0  0
  9  5  1  0  0  0  0
 11 12  1  0  0  0  0
 11 13  2  0  0  0  0
 11 14  2  0  0  0  0
M  END
>  <MOLFORMULA>
C8 H6 Cl N O3 S

>  <MOLWEIGHT>
2.316584000000000e+002

>  <code>
CC53303

>  <appearance>
Solid

>  <purity>
TECH

>  <product_name>
2-oxoindoline-5-sulfonyl chloride

>  <cansmi>
O=C1Nc2c(C1)cc(cc2)S(=O)(=O)Cl

>  <HBA2>
4

>  <HBD>
1

>  <logP>
2.3275

>  <TPSA>
71.62

>  <MW>
231.656

$$$$

 OpenBabel02131620232D

 14 15  0  0  0  0  0  0  0  0999 V2000
    6.0347   -1.7958    0.0000 C   0  0  0  0  0  0  0  0  0  0  0  0
    6.0359   -2.5774    0.0000 C   0  0  0  0  0  0  0  0  0  0  0  0
    5.3544   -2.9694    0.0000 C   0  0  0  0  0  0  0  0  0  0  0  0
    5.3562   -1.4039    0.0000 C   0  0  0  0  0  0  0  0  0  0  0  0
    6.7424   -2.9850    0.0000 S   0  0  0  0  0  0  0  0  0  0  0  0
    7.4482   -2.5760    0.0000 Cl  0  0  0  0  0  0  0  0  0  0  0  0
    6.1584   -3.5584    0.0000 O   0  0  0  0  0  0  0  0  0  0  0  0
    7.3208   -3.5584    0.0000 O   0  0  0  0  0  0  0  0  0  0  0  0
    4.6871   -2.5729    0.0000 C   0  0  0  0  0  0  0  0  0  0  0  0
    4.6869   -1.7911    0.0000 C   0  0  0  0  0  0  0  0  0  0  0  0
    3.9433   -1.5497    0.0000 N   0  0  0  0  0  0  0  0  0  0  0  0
    3.4839   -2.1823    0.0000 C   0  0  0  0  0  0  0  0  0  0  0  0
    3.9437   -2.8146    0.0000 S   0  0  0  0  0  0  0  0  0  0  0  0
    2.7021   -2.1825    0.0000 C   0  0  0  0  0  0  0  0  0  0  0  0
  1  2  1  0  0  0  0
  2  3  2  0  0  0  0
  2  5  1  0  0  0  0
  3  9  1  0  0  0  0
  4  1  2  0  0  0  0
  5  6  1  0  0  0  0
  5  7  2  0  0  0  0
  5  8  2  0  0  0  0
  9 10  2  0  0  0  0
 10  4  1  0  0  0  0
 10 11  1  0  0  0  0
 11 12  2  0  0  0  0
 12 13  1  0  0  0  0
 12 14  1  0  0  0  0
 13  9  1  0  0  0  0
M  END
>  <MOLFORMULA>
C8 H6 Cl N O2 S2

>  <MOLWEIGHT>
2.477254000000000e+002

>  <code>
CC54703

>  <appearance>
Solid

>  <purity>
95%

>  <product_name>
2-methyl-1,3-benzothiazole-6-sulfonyl chloride

>  <cansmi>
Cc1nc2c(s1)cc(cc2)S(=O)(=O)Cl

>  <HBA2>
4

>  <HBD>
0

>  <logP>
3.613

>  <TPSA>
83.65

>  <MW>
247.722

$$$$

 OpenBabel02131620232D

 16 17  0  0  0  0  0  0  0  0999 V2000
    3.2762   -7.8893    0.0000 C   0  0  0  0  0  0  0  0  0  0  0  0
    3.9943   -8.3001    0.0000 C   0  0  0  0  0  0  0  0  0  0  0  0
    4.7071   -7.8836    0.0000 N   0  0  0  0  0  0  0  0  0  0  0  0
    4.7028   -7.0565    0.0000 C   0  0  0  0  0  0  0  0  0  0  0  0
    3.9799   -6.6476    0.0000 N   0  0  0  0  0  0  0  0  0  0  0  0
    3.2701   -7.0665    0.0000 C   0  0  0  0  0  0  0  0  0  0  0  0
    5.4144   -6.6390    0.0000 C   0  0  0  0  0  0  0  0  0  0  0  0
    6.1296   -7.0509    0.0000 C   0  0  0  0  0  0  0  0  0  0  0  0
    6.8407   -6.6341    0.0000 C   0  0  0  0  0  0  0  0  0  0  0  0
    6.8353   -5.8082    0.0000 C   0  0  0  0  0  0  0  0  0  0  0  0
    6.1129   -5.4009    0.0000 C   0  0  0  0  0  0  0  0  0  0  0  0
    5.4048   -5.8201    0.0000 C   0  0  0  0  0  0  0  0  0  0  0  0
    7.5463   -5.3898    0.0000 S   0  0  0  0  0  0  0  0  0  0  0  0
    8.2642   -5.7963    0.0000 Cl  0  0  0  0  0  0  0  0  0  0  0  0
    6.8292   -4.9750    0.0000 O   0  0  0  0  0  0  0  0  0  0  0  0
    8.2583   -4.9708    0.0000 O   0  0  0  0  0  0  0  0  0  0  0  0
  1  2  2  0  0  0  0
  2  3  1  0  0  0  0
  3  4  2  0  0  0  0
  4  5  1  0  0  0  0
  4  7  1  0  0  0  0
  5  6  2  0  0  0  0
  6  1  1  0  0  0  0
  7  8  2  0  0  0  0
  8  9  1  0  0  0  0
  9 10  2  0  0  0  0
 10 11  1  0  0  0  0
 10 13  1  0  0  0  0
 11 12  2  0  0  0  0
 12  7  1  0  0  0  0
 13 14  1  0  0  0  0
 13 15  2  0  0  0  0
 13 16  2  0  0  0  0
M  END
>  <MOLFORMULA>
C10 H7 Cl N2 O2 S

>  <MOLWEIGHT>
2.546963000000000e+002

>  <code>
CC56203

>  <appearance>
Solid

>  <purity>
97%

>  <product_name>
4-pyrimidin-2-ylbenzenesulfonyl chloride

>  <cansmi>
ClS(=O)(=O)c1ccc(cc1)c1ncccn1

>  <HBA2>
4

>  <HBD>
0

>  <logP>
3.1519

>  <TPSA>
68.3

>  <MW>
254.693

$$$$

 OpenBabel02131620232D

 16 17  0  0  0  0  0  0  0  0999 V2000
    3.2810   -5.8037    0.0000 C   0  0  0  0  0  0  0  0  0  0  0  0
    3.2783   -6.6310    0.0000 C   0  0  0  0  0  0  0  0  0  0  0  0
    3.9924   -7.0452    0.0000 N   0  0  0  0  0  0  0  0  0  0  0  0
    4.7096   -6.6332    0.0000 C   0  0  0  0  0  0  0  0  0  0  0  0
    4.7082   -5.8026    0.0000 N   0  0  0  0  0  0  0  0  0  0  0  0
    3.9936   -5.3922    0.0000 C   0  0  0  0  0  0  0  0  0  0  0  0
    5.4239   -7.0459    0.0000 C   0  0  0  0  0  0  0  0  0  0  0  0
    5.4188   -7.8712    0.0000 C   0  0  0  0  0  0  0  0  0  0  0  0
    6.1323   -8.2838    0.0000 C   0  0  0  0  0  0  0  0  0  0  0  0
    6.8479   -7.8714    0.0000 C   0  0  0  0  0  0  0  0  0  0  0  0
    6.8455   -7.0422    0.0000 C   0  0  0  0  0  0  0  0  0  0  0  0
    6.1314   -6.6333    0.0000 C   0  0  0  0  0  0  0  0  0  0  0  0
    7.5586   -6.6273    0.0000 S   0  0  0  0  0  0  0  0  0  0  0  0
    8.2744   -7.0375    0.0000 Cl  0  0  0  0  0  0  0  0  0  0  0  0
    6.8417   -6.2125    0.0000 O   0  0  0  0  0  0  0  0  0  0  0  0
    8.2708   -6.2083    0.0000 O   0  0  0  0  0  0  0  0  0  0  0  0
  1  2  2  0  0  0  0
  2  3  1  0  0  0  0
  3  4  2  0  0  0  0
  4  5  1  0  0  0  0
  4  7  1  0  0  0  0
  5  6  2  0  0  0  0
  6  1  1  0  0  0  0
  7  8  2  0  0  0  0
  8  9  1  0  0  0  0
  9 10  2  0  0  0  0
 10 11  1  0  0  0  0
 11 12  2  0  0  0  0
 11 13  1  0  0  0  0
 12  7  1  0  0  0  0
 13 14  1  0  0  0  0
 13 15  2  0  0  0  0
 13 16  2  0  0  0  0
M  END
>  <MOLFORMULA>
C10 H7 Cl N2 O2 S

>  <MOLWEIGHT>
2.546963000000000e+002

>  <code>
CC56303

>  <appearance>
Solid

>  <purity>
95%

>  <product_name>
3-pyrimidin-2-ylbenzenesulfonyl chloride

>  <cansmi>
ClS(=O)(=O)c1cccc(c1)c1ncccn1

>  <HBA2>
4

>  <HBD>
0

>  <logP>
3.1519

>  <TPSA>
68.3

>  <MW>
254.693

$$$$

 OpenBabel02131620232D

 20 21  0  0  0  0  0  0  0  0999 V2000
    4.9606   -6.6071    0.0000 C   0  0  0  0  0  0  0  0  0  0  0  0
    4.2357   -6.1997    0.0000 C   0  0  0  0  0  0  0  0  0  0  0  0
    4.2251   -5.3779    0.0000 C   0  0  0  0  0  0  0  0  0  0  0  0
    4.9370   -4.9568    0.0000 C   0  0  0  0  0  0  0  0  0  0  0  0
    5.6627   -5.3693    0.0000 C   0  0  0  0  0  0  0  0  0  0  0  0
    5.6677   -6.1934    0.0000 C   0  0  0  0  0  0  0  0  0  0  0  0
    3.5063   -4.9729    0.0000 C   0  0  0  0  0  0  0  0  0  0  0  0
    2.7983   -5.3892    0.0000 F   0  0  0  0  0  0  0  0  0  0  0  0
    3.4977   -4.1480    0.0000 F   0  0  0  0  0  0  0  0  0  0  0  0
    3.3011   -5.7720    0.0000 F   0  0  0  0  0  0  0  0  0  0  0  0
    6.3872   -6.5971    0.0000 N   0  0  0  0  0  0  0  0  0  0  0  0
    7.0891   -6.1738    0.0000 C   0  0  0  0  0  0  0  0  0  0  0  0
    7.8044   -6.5776    0.0000 C   0  0  0  0  0  0  0  0  0  0  0  0
    7.8146   -7.4029    0.0000 O   0  0  0  0  0  0  0  0  0  0  0  0
    7.1013   -7.8264    0.0000 C   0  0  0  0  0  0  0  0  0  0  0  0
    6.3797   -7.4209    0.0000 C   0  0  0  0  0  0  0  0  0  0  0  0
    6.3832   -4.9504    0.0000 S   0  0  0  0  0  0  0  0  0  0  0  0
    7.0989   -5.3607    0.0000 Cl  0  0  0  0  0  0  0  0  0  0  0  0
    5.7917   -4.3625    0.0000 O   0  0  0  0  0  0  0  0  0  0  0  0
    6.9625   -4.3625    0.0000 O   0  0  0  0  0  0  0  0  0  0  0  0
  1  2  2  0  0  0  0
  2  3  1  0  0  0  0
  3  7  1  0  0  0  0
  3  4  2  0  0  0  0
  4  5  1  0  0  0  0
  5  6  2  0  0  0  0
  5 17  1  0  0  0  0
  6 11  1  0  0  0  0
  6  1  1  0  0  0  0
  7 10  1  0  0  0  0
  7  8  1  0  0  0  0
  7  9  1  0  0  0  0
 11 12  1  0  0  0  0
 11 16  1  0  0  0  0
 12 13  1  0  0  0  0
 13 14  1  0  0  0  0
 14 15  1  0  0  0  0
 15 16  1  0  0  0  0
 17 18  1  0  0  0  0
 17 19  2  0  0  0  0
 17 20  2  0  0  0  0
M  END
>  <MOLFORMULA>
C11 H11 Cl F3 N O3 S

>  <MOLWEIGHT>
3.297249000000000e+002

>  <code>
CC57803

>  <appearance>
Solid

>  <purity>
95%

>  <product_name>
2-morpholino-5-(trifluoromethyl)benzenesulfonyl chloride

>  <cansmi>
ClS(=O)(=O)c1cc(ccc1N1CCOCC1)C(F)(F)F

>  <HBA2>
4

>  <HBD>
0

>  <logP>
3.6153

>  <TPSA>
54.99

>  <MW>
329.723

$$$$

 OpenBabel02131620232D

 14 15  0  0  0  0  0  0  0  0999 V2000
   -0.3666   -1.8833    0.0000 O   0  0  0  0  0  0  0  0  0  0  0  0
    0.3027   -1.4008    0.0000 C   0  0  0  0  0  0  0  0  0  0  0  0
    0.0459   -0.6125    0.0000 C   0  0  0  0  0  0  0  0  0  0  0  0
   -0.7791   -0.6125    0.0000 C   0  0  0  0  0  0  0  0  0  0  0  0
   -1.0359   -1.4008    0.0000 C   0  0  0  0  0  0  0  0  0  0  0  0
    1.0869   -1.6569    0.0000 S   0  0  0  0  0  0  0  0  0  0  0  0
    1.7008   -1.1058    0.0000 Cl  0  0  0  0  0  0  0  0  0  0  0  0
    0.4959   -2.2375    0.0000 O   0  0  0  0  0  0  0  0  0  0  0  0
    1.7959   -2.0666    0.0000 O   0  0  0  0  0  0  0  0  0  0  0  0
    0.5305    0.0551    0.0000 C   0  0  0  0  0  0  0  0  0  0  0  0
    1.3540    0.0544    0.0000 O   0  0  0  0  0  0  0  0  0  0  0  0
    1.6086    0.8391    0.0000 C   0  0  0  0  0  0  0  0  0  0  0  0
    0.9409    1.3238    0.0000 C   0  0  0  0  0  0  0  0  0  0  0  0
    0.2738    0.8385    0.0000 O   0  0  0  0  0  0  0  0  0  0  0  0
  1  2  1  0  0  0  0
  2  6  1  0  0  0  0
  2  3  2  0  0  0  0
  3 10  1  0  0  0  0
  3  4  1  0  0  0  0
  4  5  2  0  0  0  0
  5  1  1  0  0  0  0
  6  7  1  0  0  0  0
  6  8  2  0  0  0  0
  6  9  2  0  0  0  0
 10 11  1  0  0  0  0
 11 12  1  0  0  0  0
 12 13  1  0  0  0  0
 13 14  1  0  0  0  0
 14 10  1  0  0  0  0
M  END
>  <MOLFORMULA>
C7 H7 Cl O5 S

>  <MOLWEIGHT>
2.386463000000000e+002

>  <code>
CC60103

>  <appearance>
Liquid

>  <purity>
90%

>  <product_name>
3-(1,3-dioxolan-2-yl)furan-2-sulfonyl chloride

>  <cansmi>
ClS(=O)(=O)c1occc1C1OCCO1

>  <HBA2>
5

>  <HBD>
0

>  <logP>
2.3333

>  <TPSA>
74.12

>  <MW>
238.645

$$$$

 OpenBabel02131620232D

 16 17  0  0  0  0  0  0  0  0999 V2000
    4.7411   -6.0771    0.0000 C   0  0  0  0  0  0  0  0  0  0  0  0
    4.7435   -5.2854    0.0000 C   0  0  0  0  0  0  0  0  0  0  0  0
    3.3778   -5.2812    0.0000 C   0  0  0  0  0  0  0  0  0  0  0  0
    3.3754   -6.0729    0.0000 N   0  0  0  0  0  0  0  0  0  0  0  0
    4.0611   -6.4750    0.0000 N   0  0  0  0  0  0  0  0  0  0  0  0
    4.0608   -7.2667    0.0000 C   0  0  0  0  0  0  0  0  0  0  0  0
    5.4310   -6.4720    0.0000 C   0  0  0  0  0  0  0  0  0  0  0  0
    5.4274   -7.2636    0.0000 C   0  0  0  0  0  0  0  0  0  0  0  0
    6.1124   -7.6584    0.0000 C   0  0  0  0  0  0  0  0  0  0  0  0
    6.8023   -7.2617    0.0000 C   0  0  0  0  0  0  0  0  0  0  0  0
    6.7987   -6.4657    0.0000 C   0  0  0  0  0  0  0  0  0  0  0  0
    6.1089   -6.0746    0.0000 C   0  0  0  0  0  0  0  0  0  0  0  0
    7.4820   -6.0665    0.0000 S   0  0  0  0  0  0  0  0  0  0  0  0
    8.1986   -6.4753    0.0000 Cl  0  0  0  0  0  0  0  0  0  0  0  0
    6.8917   -5.4750    0.0000 O   0  0  0  0  0  0  0  0  0  0  0  0
    8.1917   -5.6458    0.0000 O   0  0  0  0  0  0  0  0  0  0  0  0
  1  2  2  0  0  0  0
  1  7  1  0  0  0  0
  2  3  1  0  0  0  0
  3  4  2  0  0  0  0
  4  5  1  0  0  0  0
  5  1  1  0  0  0  0
  5  6  1  0  0  0  0
  7  8  2  0  0  0  0
  8  9  1  0  0  0  0
  9 10  2  0  0  0  0
 10 11  1  0  0  0  0
 11 12  2  0  0  0  0
 11 13  1  0  0  0  0
 12  7  1  0  0  0  0
 13 14  1  0  0  0  0
 13 15  2  0  0  0  0
 13 16  2  0  0  0  0
M  END
>  <MOLFORMULA>
C10 H9 Cl N2 O2 S

>  <MOLWEIGHT>
2.567121000000000e+002

>  <code>
CC60503

>  <appearance>
Liquid

>  <purity>
97%

>  <product_name>
3-(1-methyl-1H-pyrazol-5-yl)benzenesulfonyl chloride

>  <cansmi>
Cn1nccc1c1cccc(c1)S(=O)(=O)Cl

>  <HBA2>
4

>  <HBD>
0

>  <logP>
3.0954

>  <TPSA>
60.34

>  <MW>
256.709

$$$$

 OpenBabel02131620232D

 16 17  0  0  0  0  0  0  0  0999 V2000
    5.4036   -7.8771    0.0000 N   0  0  0  0  0  0  0  0  0  0  0  0
    5.4060   -7.0938    0.0000 C   0  0  0  0  0  0  0  0  0  0  0  0
    4.0486   -7.0896    0.0000 C   0  0  0  0  0  0  0  0  0  0  0  0
    4.0462   -7.8729    0.0000 C   0  0  0  0  0  0  0  0  0  0  0  0
    4.7236   -8.2750    0.0000 N   0  0  0  0  0  0  0  0  0  0  0  0
    6.0819   -5.9208    0.0000 C   0  0  0  0  0  0  0  0  0  0  0  0
    6.0807   -6.7065    0.0000 C   0  0  0  0  0  0  0  0  0  0  0  0
    6.7622   -7.0985    0.0000 C   0  0  0  0  0  0  0  0  0  0  0  0
    7.4412   -6.7060    0.0000 C   0  0  0  0  0  0  0  0  0  0  0  0
    7.4383   -5.9172    0.0000 C   0  0  0  0  0  0  0  0  0  0  0  0
    6.7604   -5.5247    0.0000 C   0  0  0  0  0  0  0  0  0  0  0  0
    4.7233   -9.0583    0.0000 C   0  0  0  0  0  0  0  0  0  0  0  0
    6.7580   -4.7372    0.0000 S   0  0  0  0  0  0  0  0  0  0  0  0
    7.4711   -4.3225    0.0000 Cl  0  0  0  0  0  0  0  0  0  0  0  0
    6.0375   -5.1417    0.0000 O   0  0  0  0  0  0  0  0  0  0  0  0
    6.3375   -4.0167    0.0000 O   0  0  0  0  0  0  0  0  0  0  0  0
  1  2  2  0  0  0  0
  2  3  1  0  0  0  0
  3  4  2  0  0  0  0
  4  5  1  0  0  0  0
  5  1  1  0  0  0  0
  5 12  1  0  0  0  0
  6  7  2  0  0  0  0
  7  2  1  0  0  0  0
  7  8  1  0  0  0  0
  8  9  2  0  0  0  0
  9 10  1  0  0  0  0
 10 11  2  0  0  0  0
 11  6  1  0  0  0  0
 11 13  1  0  0  0  0
 13 14  1  0  0  0  0
 13 15  2  0  0  0  0
 13 16  2  0  0  0  0
M  END
>  <MOLFORMULA>
C10 H9 Cl N2 O2 S

>  <MOLWEIGHT>
2.567121000000000e+002

>  <code>
CC60603

>  <appearance>
Solid

>  <purity>
97%

>  <product_name>
3-(1-methyl-1H-pyrazol-3-yl)benzenesulfonyl chloride

>  <cansmi>
Cn1ccc(n1)c1cccc(c1)S(=O)(=O)Cl

>  <HBA2>
4

>  <HBD>
0

>  <logP>
3.0954

>  <TPSA>
60.34

>  <MW>
256.709

$$$$

 OpenBabel02131620232D

 15 16  0  0  0  0  0  0  0  0999 V2000
    5.7664   -7.2652    0.0000 N   0  0  0  0  0  0  0  0  0  0  0  0
    6.4870   -6.8477    0.0000 C   0  0  0  0  0  0  0  0  0  0  0  0
    6.4841   -6.0130    0.0000 C   0  0  0  0  0  0  0  0  0  0  0  0
    5.7646   -5.6039    0.0000 C   0  0  0  0  0  0  0  0  0  0  0  0
    5.0516   -6.8482    0.0000 C   0  0  0  0  0  0  0  0  0  0  0  0
    5.0557   -6.0211    0.0000 C   0  0  0  0  0  0  0  0  0  0  0  0
    4.3449   -5.6085    0.0000 O   0  0  0  0  0  0  0  0  0  0  0  0
    3.6255   -6.0140    0.0000 C   0  0  0  0  0  0  0  0  0  0  0  0
    3.6214   -6.8410    0.0000 C   0  0  0  0  0  0  0  0  0  0  0  0
    4.3367   -7.2625    0.0000 N   0  0  0  0  0  0  0  0  0  0  0  0
    4.3337   -8.0916    0.0000 C   0  0  0  0  0  0  0  0  0  0  0  0
    7.1965   -5.5969    0.0000 S   0  0  0  0  0  0  0  0  0  0  0  0
    7.9131   -6.0058    0.0000 Cl  0  0  0  0  0  0  0  0  0  0  0  0
    6.6083   -5.0083    0.0000 O   0  0  0  0  0  0  0  0  0  0  0  0
    7.9083   -5.1792    0.0000 O   0  0  0  0  0  0  0  0  0  0  0  0
  1  2  2  0  0  0  0
  2  3  1  0  0  0  0
  3  4  2  0  0  0  0
  3 12  1  0  0  0  0
  4  6  1  0  0  0  0
  5 10  1  0  0  0  0
  5  6  2  0  0  0  0
  5  1  1  0  0  0  0
  6  7  1  0  0  0  0
  7  8  1  0  0  0  0
  8  9  1  0  0  0  0
  9 10  1  0  0  0  0
 10 11  1  0  0  0  0
 12 13  1  0  0  0  0
 12 14  2  0  0  0  0
 12 15  2  0  0  0  0
M  END
>  <MOLFORMULA>
C8 H9 Cl N2 O3 S

>  <MOLWEIGHT>
2.486891000000000e+002

>  <code>
CC62003

>  <appearance>
Solid

>  <purity>
97%

>  <product_name>
4-methyl-3,4-dihydro-2H-pyrido[3,2-b][1,4]oxazine-7-sulfonyl chloride

>  <cansmi>
CN1CCOc2c1ncc(c2)S(=O)(=O)Cl

>  <HBA2>
5

>  <HBD>
0

>  <logP>
1.9835

>  <TPSA>
67.88

>  <MW>
248.687

$$$$

 OpenBabel02131620232D

 10 10  0  0  0  0  0  0  0  0999 V2000
    4.9833   -6.6958    0.0000 N   0  0  0  0  0  0  0  0  0  0  0  0
    5.6526   -6.2133    0.0000 C   0  0  0  0  0  0  0  0  0  0  0  0
    5.3958   -5.4250    0.0000 C   0  0  0  0  0  0  0  0  0  0  0  0
    4.5708   -5.4250    0.0000 C   0  0  0  0  0  0  0  0  0  0  0  0
    4.3140   -6.2133    0.0000 N   0  0  0  0  0  0  0  0  0  0  0  0
    4.9833   -7.5208    0.0000 C   0  0  0  0  0  0  0  0  0  0  0  0
    6.4369   -6.4694    0.0000 S   0  0  0  0  0  0  0  0  0  0  0  0
    6.6072   -7.2767    0.0000 Cl  0  0  0  0  0  0  0  0  0  0  0  0
    6.4292   -5.6417    0.0000 O   0  0  0  0  0  0  0  0  0  0  0  0
    7.2583   -6.4667    0.0000 O   0  0  0  0  0  0  0  0  0  0  0  0
  1  6  1  0  0  0  0
  1  2  1  0  0  0  0
  2  7  1  0  0  0  0
  2  3  2  0  0  0  0
  3  4  1  0  0  0  0
  4  5  2  0  0  0  0
  5  1  1  0  0  0  0
  7  8  1  0  0  0  0
  7  9  2  0  0  0  0
  7 10  2  0  0  0  0
M  END
>  <MOLFORMULA>
C4 H5 Cl N2 O2 S

>  <MOLWEIGHT>
1.806145000000000e+002

>  <code>
CC62303

>  <appearance>
Liquid

>  <purity>
97%

>  <product_name>
1-methyl-1H-pyrazole-5-sulfonyl chloride

>  <cansmi>
Cn1nccc1S(=O)(=O)Cl

>  <HBA2>
4

>  <HBD>
0

>  <logP>
1.4284

>  <TPSA>
60.34

>  <MW>
180.613

$$$$

 OpenBabel02131620232D

 18 19  0  0  0  0  0  0  0  0999 V2000
    2.0358   -3.6956    0.0000 C   0  0  0  0  0  0  0  0  0  0  0  0
    2.7501   -4.1090    0.0000 N   0  0  0  0  0  0  0  0  0  0  0  0
    3.4667   -3.6993    0.0000 C   0  0  0  0  0  0  0  0  0  0  0  0
    3.4703   -2.8722    0.0000 C   0  0  0  0  0  0  0  0  0  0  0  0
    2.7513   -2.4523    0.0000 N   0  0  0  0  0  0  0  0  0  0  0  0
    2.0376   -2.8644    0.0000 C   0  0  0  0  0  0  0  0  0  0  0  0
    4.1858   -2.4614    0.0000 O   0  0  0  0  0  0  0  0  0  0  0  0
    4.9034   -2.8757    0.0000 C   0  0  0  0  0  0  0  0  0  0  0  0
    4.8952   -3.7011    0.0000 C   0  0  0  0  0  0  0  0  0  0  0  0
    5.6078   -4.1153    0.0000 C   0  0  0  0  0  0  0  0  0  0  0  0
    6.3243   -3.7086    0.0000 C   0  0  0  0  0  0  0  0  0  0  0  0
    6.3237   -2.8752    0.0000 C   0  0  0  0  0  0  0  0  0  0  0  0
    5.6105   -2.4647    0.0000 C   0  0  0  0  0  0  0  0  0  0  0  0
    1.3236   -2.4511    0.0000 C   0  0  0  0  0  0  0  0  0  0  0  0
    7.0377   -2.4620    0.0000 S   0  0  0  0  0  0  0  0  0  0  0  0
    7.7526   -2.8737    0.0000 Cl  0  0  0  0  0  0  0  0  0  0  0  0
    6.4500   -1.8708    0.0000 O   0  0  0  0  0  0  0  0  0  0  0  0
    7.6208   -1.8708    0.0000 O   0  0  0  0  0  0  0  0  0  0  0  0
  1  2  2  0  0  0  0
  2  3  1  0  0  0  0
  3  4  2  0  0  0  0
  4  5  1  0  0  0  0
  4  7  1  0  0  0  0
  5  6  2  0  0  0  0
  6  1  1  0  0  0  0
  6 14  1  0  0  0  0
  7  8  1  0  0  0  0
  8  9  2  0  0  0  0
  9 10  1  0  0  0  0
 10 11  2  0  0  0  0
 11 12  1  0  0  0  0
 12 13  2  0  0  0  0
 12 15  1  0  0  0  0
 13  8  1  0  0  0  0
 15 16  1  0  0  0  0
 15 17  2  0  0  0  0
 15 18  2  0  0  0  0
M  END
>  <MOLFORMULA>
C11 H9 Cl N2 O3 S

>  <MOLWEIGHT>
2.847221000000000e+002

>  <code>
CC62603

>  <appearance>
Solid

>  <purity>
97%

>  <product_name>
3-[(6-methylpyrazin-2-yl)oxy]benzenesulfonyl chloride

>  <cansmi>
Cc1cncc(n1)Oc1cccc(c1)S(=O)(=O)Cl

>  <HBA2>
5

>  <HBD>
0

>  <logP>
3.5856

>  <TPSA>
77.53

>  <MW>
284.719

$$$$

 OpenBabel02131620232D

 18 19  0  0  0  0  0  0  0  0999 V2000
    2.1719   -2.9476    0.0000 C   0  0  0  0  0  0  0  0  0  0  0  0
    2.8897   -3.3591    0.0000 N   0  0  0  0  0  0  0  0  0  0  0  0
    3.6028   -2.9391    0.0000 C   0  0  0  0  0  0  0  0  0  0  0  0
    3.6034   -2.1120    0.0000 C   0  0  0  0  0  0  0  0  0  0  0  0
    2.8809   -1.7024    0.0000 N   0  0  0  0  0  0  0  0  0  0  0  0
    2.1666   -2.1248    0.0000 C   0  0  0  0  0  0  0  0  0  0  0  0
    4.3112   -1.6993    0.0000 O   0  0  0  0  0  0  0  0  0  0  0  0
    1.4487   -1.7183    0.0000 C   0  0  0  0  0  0  0  0  0  0  0  0
    5.0282   -2.1032    0.0000 C   0  0  0  0  0  0  0  0  0  0  0  0
    5.0353   -2.9328    0.0000 C   0  0  0  0  0  0  0  0  0  0  0  0
    5.7515   -3.3367    0.0000 C   0  0  0  0  0  0  0  0  0  0  0  0
    6.4602   -2.9239    0.0000 C   0  0  0  0  0  0  0  0  0  0  0  0
    6.4567   -2.0947    0.0000 C   0  0  0  0  0  0  0  0  0  0  0  0
    5.7400   -1.6862    0.0000 C   0  0  0  0  0  0  0  0  0  0  0  0
    7.1764   -3.3335    0.0000 S   0  0  0  0  0  0  0  0  0  0  0  0
    7.1797   -4.1585    0.0000 Cl  0  0  0  0  0  0  0  0  0  0  0  0
    7.3875   -2.5333    0.0000 O   0  0  0  0  0  0  0  0  0  0  0  0
    8.0000   -3.3333    0.0000 O   0  0  0  0  0  0  0  0  0  0  0  0
  1  2  2  0  0  0  0
  2  3  1  0  0  0  0
  3  4  2  0  0  0  0
  4  5  1  0  0  0  0
  4  7  1  0  0  0  0
  5  6  2  0  0  0  0
  6  1  1  0  0  0  0
  6  8  1  0  0  0  0
  7  9  1  0  0  0  0
  9 10  2  0  0  0  0
 10 11  1  0  0  0  0
 11 12  2  0  0  0  0
 12 13  1  0  0  0  0
 12 15  1  0  0  0  0
 13 14  2  0  0  0  0
 14  9  1  0  0  0  0
 15 16  1  0  0  0  0
 15 17  2  0  0  0  0
 15 18  2  0  0  0  0
M  END
>  <MOLFORMULA>
C11 H9 Cl N2 O3 S

>  <MOLWEIGHT>
2.847221000000000e+002

>  <code>
CC62703

>  <appearance>
Solid

>  <purity>
97%

>  <product_name>
4-[(6-methylpyrazin-2-yl)oxy]benzenesulfonyl chloride

>  <cansmi>
Cc1cncc(n1)Oc1ccc(cc1)S(=O)(=O)Cl

>  <HBA2>
5

>  <HBD>
0

>  <logP>
3.5856

>  <TPSA>
77.53

>  <MW>
284.719

$$$$

 OpenBabel02131620232D

 15 16  0  0  0  0  0  0  0  0999 V2000
   13.1804    1.6667    0.0000 O   0  0  0  0  0  0  0  0  0  0  0  0
   13.7000    1.3667    0.0000 S   0  0  0  0  0  0  0  0  0  0  0  0
   14.2196    1.6667    0.0000 O   0  0  0  0  0  0  0  0  0  0  0  0
   11.1153    1.0729    0.0000 C   0  0  0  0  0  0  0  0  0  0  0  0
   11.1129    0.4729    0.0000 C   0  0  0  0  0  0  0  0  0  0  0  0
   11.6320    0.1667    0.0000 N   0  0  0  0  0  0  0  0  0  0  0  0
   12.1518    1.0687    0.0000 C   0  0  0  0  0  0  0  0  0  0  0  0
   12.1480    0.4716    0.0000 C   0  0  0  0  0  0  0  0  0  0  0  0
   12.6624    0.1710    0.0000 C   0  0  0  0  0  0  0  0  0  0  0  0
   13.1810    0.4667    0.0000 C   0  0  0  0  0  0  0  0  0  0  0  0
   13.1819    1.0661    0.0000 C   0  0  0  0  0  0  0  0  0  0  0  0
   12.6671    1.3640    0.0000 C   0  0  0  0  0  0  0  0  0  0  0  0
   11.6322   -0.4333    0.0000 C   0  0  0  0  0  0  0  0  0  0  0  0
   10.5912    0.1764    0.0000 O   0  0  0  0  0  0  0  0  0  0  0  0
   14.2212    1.0648    0.0000 Cl  0  0  0  0  0  0  0  0  0  0  0  0
  1  2  2  0  0  0  0
  2  3  2  0  0  0  0
  2 15  1  0  0  0  0
  4  5  1  0  0  0  0
  5  6  1  0  0  0  0
  5 14  2  0  0  0  0
  6  8  1  0  0  0  0
  6 13  1  0  0  0  0
  7  8  2  0  0  0  0
  7  4  1  0  0  0  0
  8  9  1  0  0  0  0
  9 10  2  0  0  0  0
 10 11  1  0  0  0  0
 11 12  2  0  0  0  0
 11  2  1  0  0  0  0
 12  7  1  0  0  0  0
M  END
>  <MOLFORMULA>
C9 H8 Cl N O3 S

>  <MOLWEIGHT>
2.456850000000000e+002

>  <code>
CC63003

>  <appearance>
Solid

>  <purity>
95%

>  <product_name>
1-methyl-2-oxo-5-indolinesulfonyl chloride

>  <cansmi>
O=C1Cc2c(N1C)ccc(c2)S(=O)(=O)Cl

>  <HBA2>
4

>  <HBD>
0

>  <logP>
2.2788

>  <TPSA>
62.83

>  <MW>
245.683

$$$$

 OpenBabel02131620232D

 10 10  0  0  0  0  0  0  0  0999 V2000
    5.5750   -6.6625    0.0000 S   0  0  0  0  0  0  0  0  0  0  0  0
    6.2417   -6.2584    0.0000 C   0  0  0  0  0  0  0  0  0  0  0  0
    4.9125   -6.2584    0.0000 C   0  0  0  0  0  0  0  0  0  0  0  0
    6.2417   -5.5000    0.0000 C   0  0  0  0  0  0  0  0  0  0  0  0
    4.9125   -5.5000    0.0000 C   0  0  0  0  0  0  0  0  0  0  0  0
    4.2417   -6.6500    0.0000 C   0  0  0  0  0  0  0  0  0  0  0  0
    6.9206   -6.6414    0.0000 S   0  0  0  0  0  0  0  0  0  0  0  0
    6.9283   -7.4210    0.0000 Cl  0  0  0  0  0  0  0  0  0  0  0  0
    6.9125   -5.8542    0.0000 O   0  0  0  0  0  0  0  0  0  0  0  0
    7.7417   -6.6375    0.0000 O   0  0  0  0  0  0  0  0  0  0  0  0
  2  7  1  0  0  0  0
  2  1  1  0  0  0  0
  3  1  1  0  0  0  0
  4  5  1  0  0  0  0
  4  2  2  0  0  0  0
  5  3  2  0  0  0  0
  6  3  1  0  0  0  0
  7  8  1  0  0  0  0
  7  9  2  0  0  0  0
  7 10  2  0  0  0  0
M  END
>  <MOLFORMULA>
C5 H5 Cl O2 S2

>  <MOLWEIGHT>
1.966775000000000e+002

>  <code>
CC65003

>  <appearance>
Liquid

>  <purity>
97%

>  <product_name>
5-methylthiophene-2-sulfonyl chloride

>  <cansmi>
Cc1ccc(s1)S(=O)(=O)Cl

>  <HBA2>
3

>  <HBD>
0

>  <logP>
3.0648

>  <TPSA>
70.76

>  <MW>
196.675

$$$$

 OpenBabel02131620232D

 14 15  0  0  0  0  0  0  0  0999 V2000
    6.5497   -6.4069    0.0000 C   0  0  0  0  0  0  0  0  0  0  0  0
    7.2662   -5.9935    0.0000 C   0  0  0  0  0  0  0  0  0  0  0  0
    7.2633   -5.1630    0.0000 C   0  0  0  0  0  0  0  0  0  0  0  0
    6.5479   -4.7539    0.0000 C   0  0  0  0  0  0  0  0  0  0  0  0
    5.8324   -5.9958    0.0000 C   0  0  0  0  0  0  0  0  0  0  0  0
    5.8384   -5.1697    0.0000 C   0  0  0  0  0  0  0  0  0  0  0  0
    5.0546   -4.9086    0.0000 C   0  0  0  0  0  0  0  0  0  0  0  0
    4.5641   -5.5734    0.0000 C   0  0  0  0  0  0  0  0  0  0  0  0
    5.0448   -6.2452    0.0000 N   0  0  0  0  0  0  0  0  0  0  0  0
    4.7842   -7.0279    0.0000 C   0  0  0  0  0  0  0  0  0  0  0  0
    6.5509   -7.2319    0.0000 S   0  0  0  0  0  0  0  0  0  0  0  0
    7.2660   -7.6433    0.0000 Cl  0  0  0  0  0  0  0  0  0  0  0  0
    6.5458   -8.0542    0.0000 O   0  0  0  0  0  0  0  0  0  0  0  0
    5.7250   -7.2250    0.0000 O   0  0  0  0  0  0  0  0  0  0  0  0
  1 11  1  0  0  0  0
  1  2  2  0  0  0  0
  2  3  1  0  0  0  0
  3  4  2  0  0  0  0
  4  6  1  0  0  0  0
  5  6  2  0  0  0  0
  5  1  1  0  0  0  0
  6  7  1  0  0  0  0
  7  8  2  0  0  0  0
  8  9  1  0  0  0  0
  9  5  1  0  0  0  0
  9 10  1  0  0  0  0
 11 12  1  0  0  0  0
 11 13  2  0  0  0  0
 11 14  2  0  0  0  0
M  END
>  <MOLFORMULA>
C9 H8 Cl N O2 S

>  <MOLWEIGHT>
2.296862000000000e+002

>  <code>
CC66903

>  <appearance>
Solid

>  <purity>
97%

>  <product_name>
1-methyl-1H-indole-7-sulfonyl chloride

>  <cansmi>
Cn1ccc2c1c(ccc2)S(=O)(=O)Cl

>  <HBA2>
3

>  <HBD>
0

>  <logP>
3.1866

>  <TPSA>
47.45

>  <MW>
229.683

$$$$

 OpenBabel02131620232D

 11 11  0  0  0  0  0  0  0  0999 V2000
   -0.1015   -0.3708    0.0000 C   0  0  0  0  0  0  0  0  0  0  0  0
   -0.1026   -1.1981    0.0000 C   0  0  0  0  0  0  0  0  0  0  0  0
    0.6123   -1.6110    0.0000 N   0  0  0  0  0  0  0  0  0  0  0  0
    1.3287   -1.1977    0.0000 C   0  0  0  0  0  0  0  0  0  0  0  0
    1.3258   -0.3630    0.0000 C   0  0  0  0  0  0  0  0  0  0  0  0
    0.6105    0.0461    0.0000 C   0  0  0  0  0  0  0  0  0  0  0  0
   -0.8171    0.0414    0.0000 Br  0  0  0  0  0  0  0  0  0  0  0  0
    2.0357    0.0519    0.0000 S   0  0  0  0  0  0  0  0  0  0  0  0
    2.7523   -0.3568    0.0000 Cl  0  0  0  0  0  0  0  0  0  0  0  0
    1.3167    0.4667    0.0000 O   0  0  0  0  0  0  0  0  0  0  0  0
    2.7458    0.4708    0.0000 O   0  0  0  0  0  0  0  0  0  0  0  0
  1  2  2  0  0  0  0
  1  7  1  0  0  0  0
  2  3  1  0  0  0  0
  3  4  2  0  0  0  0
  4  5  1  0  0  0  0
  5  6  2  0  0  0  0
  5  8  1  0  0  0  0
  6  1  1  0  0  0  0
  8  9  1  0  0  0  0
  8 10  2  0  0  0  0
  8 11  2  0  0  0  0
M  END
>  <MOLFORMULA>
C5 H3 Br Cl N O2 S

>  <MOLWEIGHT>
2.565067000000000e+002

>  <code>
CC67103

>  <appearance>
Solid

>  <purity>
97%

>  <product_name>
5-bromopyridine-3-sulfonyl chloride

>  <cansmi>
Brc1cncc(c1)S(=O)(=O)Cl

>  <HBA2>
3

>  <HBD>
0

>  <logP>
2.8524

>  <TPSA>
55.41

>  <MW>
256.505

$$$$

 OpenBabel02131620232D

 17 18  0  0  0  0  0  0  0  0999 V2000
    5.5387   -7.3568    0.0000 C   0  0  0  0  0  0  0  0  0  0  0  0
    6.2505   -7.7786    0.0000 C   0  0  0  0  0  0  0  0  0  0  0  0
    6.9716   -7.3696    0.0000 C   0  0  0  0  0  0  0  0  0  0  0  0
    6.9801   -6.5425    0.0000 C   0  0  0  0  0  0  0  0  0  0  0  0
    6.2636   -6.1225    0.0000 C   0  0  0  0  0  0  0  0  0  0  0  0
    5.5475   -6.5304    0.0000 C   0  0  0  0  0  0  0  0  0  0  0  0
    4.8359   -6.1130    0.0000 N   0  0  0  0  0  0  0  0  0  0  0  0
    4.7517   -5.2897    0.0000 C   0  0  0  0  0  0  0  0  0  0  0  0
    3.9460   -5.1126    0.0000 C   0  0  0  0  0  0  0  0  0  0  0  0
    3.5321   -5.8263    0.0000 C   0  0  0  0  0  0  0  0  0  0  0  0
    4.0741   -6.4447    0.0000 N   0  0  0  0  0  0  0  0  0  0  0  0
    2.7053   -5.9083    0.0000 C   0  0  0  0  0  0  0  0  0  0  0  0
    7.6824   -7.7885    0.0000 S   0  0  0  0  0  0  0  0  0  0  0  0
    5.3675   -4.7407    0.0000 C   0  0  0  0  0  0  0  0  0  0  0  0
    7.6750   -8.6134    0.0000 Cl  0  0  0  0  0  0  0  0  0  0  0  0
    7.6750   -6.9625    0.0000 O   0  0  0  0  0  0  0  0  0  0  0  0
    8.5042   -7.7875    0.0000 O   0  0  0  0  0  0  0  0  0  0  0  0
  1  2  2  0  0  0  0
  2  3  1  0  0  0  0
  3 13  1  0  0  0  0
  3  4  2  0  0  0  0
  4  5  1  0  0  0  0
  5  6  2  0  0  0  0
  6  1  1  0  0  0  0
  6  7  1  0  0  0  0
  7  8  1  0  0  0  0
  8  9  2  0  0  0  0
  8 14  1  0  0  0  0
  9 10  1  0  0  0  0
 10 12  1  0  0  0  0
 10 11  2  0  0  0  0
 11  7  1  0  0  0  0
 13 15  1  0  0  0  0
 13 16  2  0  0  0  0
 13 17  2  0  0  0  0
M  END
>  <MOLFORMULA>
C11 H11 Cl N2 O2 S

>  <MOLWEIGHT>
2.707389000000000e+002

>  <code>
CC68203

>  <appearance>
Solid

>  <purity>
90%

>  <product_name>
4-(3,5-dimethyl-1H-pyrazol-1-yl)benzenesulfonyl chloride

>  <cansmi>
Cc1nn(c(c1)C)c1ccc(cc1)S(=O)(=O)Cl

>  <HBA2>
4

>  <HBD>
0

>  <logP>
3.4974

>  <TPSA>
60.34

>  <MW>
270.735

$$$$

 OpenBabel02131620232D

 20 21  0  0  0  0  0  0  0  0999 V2000
    7.1417   -3.0125    0.0000 S   0  0  0  0  0  0  0  0  0  0  0  0
    3.5875   -2.6000    0.0000 C   0  0  0  0  0  0  0  0  0  0  0  0
    3.5875   -1.7750    0.0000 C   0  0  0  0  0  0  0  0  0  0  0  0
    4.3083   -3.0125    0.0000 C   0  0  0  0  0  0  0  0  0  0  0  0
    5.0292   -3.4292    0.0000 N   0  0  0  0  0  0  0  0  0  0  0  0
    6.4375   -2.5958    0.0000 C   0  0  0  0  0  0  0  0  0  0  0  0
    7.7250   -3.6042    0.0000 O   0  0  0  0  0  0  0  0  0  0  0  0
    6.5542   -3.6042    0.0000 O   0  0  0  0  0  0  0  0  0  0  0  0
    4.3083   -1.3583    0.0000 O   0  0  0  0  0  0  0  0  0  0  0  0
    2.8708   -3.0125    0.0000 C   0  0  0  0  0  0  0  0  0  0  0  0
    7.8584   -2.5958    0.0000 Cl  0  0  0  0  0  0  0  0  0  0  0  0
    5.7292   -3.0041    0.0000 C   0  0  0  0  0  0  0  0  0  0  0  0
    6.4375   -1.7750    0.0000 C   0  0  0  0  0  0  0  0  0  0  0  0
    5.0292   -1.7750    0.0000 C   0  0  0  0  0  0  0  0  0  0  0  0
    2.8667   -3.8500    0.0000 Cl  0  0  0  0  0  0  0  0  0  0  0  0
    5.0292   -2.5958    0.0000 C   0  0  0  0  0  0  0  0  0  0  0  0
    5.7292   -1.3750    0.0000 C   0  0  0  0  0  0  0  0  0  0  0  0
    2.8708   -1.3542    0.0000 C   0  0  0  0  0  0  0  0  0  0  0  0
    2.1500   -1.7708    0.0000 C   0  0  0  0  0  0  0  0  0  0  0  0
    2.1500   -2.6000    0.0000 C   0  0  0  0  0  0  0  0  0  0  0  0
  2  3  2  0  0  0  0
  3  9  1  0  0  0  0
  4  2  1  0  0  0  0
  5  4  3  0  0  0  0
  6  1  1  0  0  0  0
  7  1  2  0  0  0  0
  8  1  2  0  0  0  0
  9 14  1  0  0  0  0
 10  2  1  0  0  0  0
 10 20  2  0  0  0  0
 11  1  1  0  0  0  0
 12  6  2  0  0  0  0
 13  6  1  0  0  0  0
 14 17  1  0  0  0  0
 15 10  1  0  0  0  0
 16 12  1  0  0  0  0
 16 14  2  0  0  0  0
 17 13  2  0  0  0  0
 18  3  1  0  0  0  0
 19 18  2  0  0  0  0
 20 19  1  0  0  0  0
M  END
>  <MOLFORMULA>
C13 H7 Cl2 N O3 S

>  <MOLWEIGHT>
3.281743000000000e+002

>  <code>
CD07026

>  <appearance>
solid

>  <purity>
TECH

>  <product_name>
4-(3-chloro-2-cyanophenoxy)benzene-1-sulfonyl chloride

>  <cansmi>
N#Cc1c(cccc1Cl)Oc1ccc(cc1)S(=O)(=O)Cl

>  <HBA2>
4

>  <HBD>
0

>  <logP>
5.01228

>  <TPSA>
75.54

>  <MW>
328.171

$$$$

 OpenBabel02131620232D

 11 11  0  0  0  0  0  0  0  0999 V2000
    0.3917   -0.1292    0.0000 C   0  0  0  0  0  0  0  0  0  0  0  0
    1.1625   -0.5750    0.0000 S   0  0  0  0  0  0  0  0  0  0  0  0
   -0.3750   -0.5792    0.0000 S   0  0  0  0  0  0  0  0  0  0  0  0
    0.3875    0.7583    0.0000 C   0  0  0  0  0  0  0  0  0  0  0  0
   -1.1500   -0.1417    0.0000 C   0  0  0  0  0  0  0  0  0  0  0  0
   -1.1583    0.7458    0.0000 C   0  0  0  0  0  0  0  0  0  0  0  0
    0.5292   -1.1917    0.0000 O   0  0  0  0  0  0  0  0  0  0  0  0
    1.7792   -1.1917    0.0000 O   0  0  0  0  0  0  0  0  0  0  0  0
    1.9250   -0.1167    0.0000 Cl  0  0  0  0  0  0  0  0  0  0  0  0
   -1.9208   -0.5875    0.0000 Br  0  0  0  0  0  0  0  0  0  0  0  0
   -1.9333    1.1958    0.0000 Br  0  0  0  0  0  0  0  0  0  0  0  0
  2  1  1  0  0  0  0
  3  1  1  0  0  0  0
  4  1  2  0  0  0  0
  5  3  1  0  0  0  0
  6  4  1  0  0  0  0
  6  5  2  0  0  0  0
  7  2  2  0  0  0  0
  8  2  2  0  0  0  0
  9  2  1  0  0  0  0
 10  5  1  0  0  0  0
 11  6  1  0  0  0  0
M  END
>  <MOLFORMULA>
C4 H Br2 Cl O2 S2

>  <MOLWEIGHT>
3.404429000000000e+002

>  <code>
CD08466

>  <appearance>
solid

>  <purity>
97%

>  <product_name>
4,5-dibromothiophene-2-sulfonyl chloride

>  <cansmi>
Brc1sc(cc1Br)S(=O)(=O)Cl

>  <HBA2>
3

>  <HBD>
0

>  <logP>
4.2814

>  <TPSA>
70.76

>  <MW>
340.441

$$$$

 OpenBabel02131620232D

 11 11  0  0  0  0  0  0  0  0999 V2000
   -0.8000   -1.2667    0.0000 S   0  0  0  0  0  0  0  0  0  0  0  0
   -0.1307   -0.7842    0.0000 C   0  0  0  0  0  0  0  0  0  0  0  0
   -0.3875    0.0041    0.0000 C   0  0  0  0  0  0  0  0  0  0  0  0
   -1.2125    0.0041    0.0000 C   0  0  0  0  0  0  0  0  0  0  0  0
   -1.4693   -0.7842    0.0000 C   0  0  0  0  0  0  0  0  0  0  0  0
   -2.2535   -1.0403    0.0000 Cl  0  0  0  0  0  0  0  0  0  0  0  0
    0.6535   -1.0403    0.0000 Cl  0  0  0  0  0  0  0  0  0  0  0  0
    0.0972    0.6717    0.0000 S   0  0  0  0  0  0  0  0  0  0  0  0
    0.9177    0.5858    0.0000 Cl  0  0  0  0  0  0  0  0  0  0  0  0
    0.5042    1.3917    0.0000 O   0  0  0  0  0  0  0  0  0  0  0  0
   -0.4917    1.2625    0.0000 O   0  0  0  0  0  0  0  0  0  0  0  0
  1  2  1  0  0  0  0
  2  7  1  0  0  0  0
  2  3  2  0  0  0  0
  3  8  1  0  0  0  0
  3  4  1  0  0  0  0
  4  5  2  0  0  0  0
  5  6  1  0  0  0  0
  5  1  1  0  0  0  0
  8  9  1  0  0  0  0
  8 10  2  0  0  0  0
  8 11  2  0  0  0  0
M  END
>  <MOLFORMULA>
C4 H Cl3 O2 S2

>  <MOLWEIGHT>
2.515409000000000e+002

>  <code>
CD09480

>  <appearance>
liquid

>  <purity>
97%

>  <product_name>
2,5-dichlorothiophene-3-sulfonyl chloride

>  <cansmi>
Clc1sc(c(c1)S(=O)(=O)Cl)Cl

>  <HBA2>
3

>  <HBD>
0

>  <logP>
4.0632

>  <TPSA>
70.76

>  <MW>
251.539

$$$$

 OpenBabel02131620232D

 12 12  0  0  0  0  0  0  0  0999 V2000
   -0.4542   -1.9959    0.0000 S   0  0  0  0  0  0  0  0  0  0  0  0
    0.2151   -1.5134    0.0000 C   0  0  0  0  0  0  0  0  0  0  0  0
   -0.0417   -0.7251    0.0000 C   0  0  0  0  0  0  0  0  0  0  0  0
   -0.8667   -0.7251    0.0000 C   0  0  0  0  0  0  0  0  0  0  0  0
   -1.1235   -1.5134    0.0000 C   0  0  0  0  0  0  0  0  0  0  0  0
   -1.9077   -1.7695    0.0000 Cl  0  0  0  0  0  0  0  0  0  0  0  0
    0.9993   -1.7695    0.0000 Cl  0  0  0  0  0  0  0  0  0  0  0  0
    0.4430   -0.0575    0.0000 S   0  0  0  0  0  0  0  0  0  0  0  0
    1.2635   -0.1434    0.0000 Cl  0  0  0  0  0  0  0  0  0  0  0  0
    0.8500    0.6625    0.0000 O   0  0  0  0  0  0  0  0  0  0  0  0
   -0.1459    0.5333    0.0000 O   0  0  0  0  0  0  0  0  0  0  0  0
   -1.3513   -0.0574    0.0000 Br  0  0  0  0  0  0  0  0  0  0  0  0
  1  2  1  0  0  0  0
  2  7  1  0  0  0  0
  2  3  2  0  0  0  0
  3  8  1  0  0  0  0
  3  4  1  0  0  0  0
  4  5  2  0  0  0  0
  4 12  1  0  0  0  0
  5  6  1  0  0  0  0
  5  1  1  0  0  0  0
  8  9  1  0  0  0  0
  8 10  2  0  0  0  0
  8 11  2  0  0  0  0
M  END
>  <MOLFORMULA>
C4 Br Cl3 O2 S2

>  <MOLWEIGHT>
3.304370000000000e+002

>  <code>
CD09555

>  <appearance>
solid

>  <purity>
97%

>  <product_name>
4-bromo-2,5-dichlorothiophene-3-sulfonyl chloride

>  <cansmi>
Clc1sc(c(c1S(=O)(=O)Cl)Br)Cl

>  <HBA2>
3

>  <HBD>
0

>  <logP>
4.8257

>  <TPSA>
70.76

>  <MW>
330.435

$$$$

 OpenBabel02131620232D

 12 12  0  0  0  0  0  0  0  0999 V2000
    4.9170   -2.4070    0.0000 C   0  0  0  0  0  0  0  0  0  0  0  0
    5.3969   -1.7483    0.0000 S   0  0  0  0  0  0  0  0  0  0  0  0
    5.7063   -0.9185    0.0000 O   0  0  0  0  0  0  0  0  0  0  0  0
    4.5600   -1.4220    0.0000 O   0  0  0  0  0  0  0  0  0  0  0  0
    6.1993   -1.8369    0.0000 Cl  0  0  0  0  0  0  0  0  0  0  0  0
    4.1038   -2.4075    0.0000 C   0  0  0  0  0  0  0  0  0  0  0  0
    3.8547   -3.1793    0.0000 N   0  0  0  0  0  0  0  0  0  0  0  0
    4.5135   -3.6591    0.0000 N   0  0  0  0  0  0  0  0  0  0  0  0
    5.1714   -3.1783    0.0000 C   0  0  0  0  0  0  0  0  0  0  0  0
    5.9432   -3.4316    0.0000 Cl  0  0  0  0  0  0  0  0  0  0  0  0
    3.6273   -1.7495    0.0000 C   0  0  0  0  0  0  0  0  0  0  0  0
    4.5141   -4.4841    0.0000 C   0  0  0  0  0  0  0  0  0  0  0  0
  1  6  1  0  0  0  0
  2  1  1  0  0  0  0
  3  2  2  0  0  0  0
  4  2  2  0  0  0  0
  5  2  1  0  0  0  0
  6  7  2  0  0  0  0
  6 11  1  0  0  0  0
  7  8  1  0  0  0  0
  8  9  1  0  0  0  0
  8 12  1  0  0  0  0
  9  1  2  0  0  0  0
  9 10  1  0  0  0  0
M  END
>  <MOLFORMULA>
C5 H6 Cl2 N2 O2 S

>  <MOLWEIGHT>
2.290864000000000e+002

>  <code>
CD10088

>  <appearance>
liquid

>  <purity>
97%

>  <product_name>
5-chloro-1,3-dimethyl-1H-pyrazole-4-sulfonyl chloride

>  <cansmi>
Cc1nn(c(c1S(=O)(=O)Cl)Cl)C

>  <HBA2>
4

>  <HBD>
0

>  <logP>
2.3902

>  <TPSA>
60.34

>  <MW>
229.084

$$$$

 OpenBabel02131620232D

  9  8  0  0  0  0  0  0  0  0999 V2000
    5.7166  -14.2750    0.0000 S   0  0  0  0  0  0  0  0  0  0  0  0
    4.1083  -14.2750    0.0000 S   0  0  0  0  0  0  0  0  0  0  0  0
    4.8750  -14.6375    0.0000 C   0  0  0  0  0  0  0  0  0  0  0  0
    6.3333  -13.6042    0.0000 O   0  0  0  0  0  0  0  0  0  0  0  0
    5.2125  -13.6459    0.0000 O   0  0  0  0  0  0  0  0  0  0  0  0
    3.6042  -13.5959    0.0000 O   0  0  0  0  0  0  0  0  0  0  0  0
    4.6583  -13.6292    0.0000 O   0  0  0  0  0  0  0  0  0  0  0  0
    6.3500  -14.6375    0.0000 Cl  0  0  0  0  0  0  0  0  0  0  0  0
    3.4708  -14.6375    0.0000 C   0  0  0  0  0  0  0  0  0  0  0  0
  2  3  1  0  0  0  0
  3  1  1  0  0  0  0
  4  1  2  0  0  0  0
  5  1  2  0  0  0  0
  6  2  2  0  0  0  0
  7  2  2  0  0  0  0
  8  1  1  0  0  0  0
  9  2  1  0  0  0  0
M  END
>  <MOLFORMULA>
C2 H5 Cl O4 S2

>  <MOLWEIGHT>
1.926425000000000e+002

>  <code>
CD10852

>  <appearance>
solid

>  <purity>
90%

>  <product_name>
methylmethanedisulfonyl chloride

>  <cansmi>
CS(=O)(=O)CS(=O)(=O)Cl

>  <HBA2>
4

>  <HBD>
0

>  <logP>
1.7187

>  <TPSA>
85.04

>  <MW>
192.642

$$$$

 OpenBabel02131620232D

 14 14  0  0  0  0  0  0  0  0999 V2000
    2.6667    0.7708    0.0000 S   0  0  0  0  0  0  0  0  0  0  0  0
   -1.3375   -0.0042    0.0000 C   0  0  0  0  0  0  0  0  0  0  0  0
    1.3292   -0.0042    0.0000 C   0  0  0  0  0  0  0  0  0  0  0  0
   -0.0083    0.7708    0.0000 C   0  0  0  0  0  0  0  0  0  0  0  0
   -2.6708    0.7708    0.0000 C   0  0  0  0  0  0  0  0  0  0  0  0
   -1.3375   -1.5417    0.0000 C   0  0  0  0  0  0  0  0  0  0  0  0
    3.7417    1.8708    0.0000 O   0  0  0  0  0  0  0  0  0  0  0  0
    1.5667    1.8708    0.0000 O   0  0  0  0  0  0  0  0  0  0  0  0
    4.0000    0.0000    0.0000 Cl  0  0  0  0  0  0  0  0  0  0  0  0
   -2.6833    2.3208    0.0000 O   0  0  0  0  0  0  0  0  0  0  0  0
    1.3292   -1.5417    0.0000 C   0  0  0  0  0  0  0  0  0  0  0  0
   -0.0083   -2.3125    0.0000 C   0  0  0  0  0  0  0  0  0  0  0  0
   -4.0083   -0.0042    0.0000 O   0  0  0  0  0  0  0  0  0  0  0  0
   -2.6708   -2.3125    0.0000 O   0  0  0  0  0  0  0  0  0  0  0  0
  2  4  1  0  0  0  0
  2  6  2  0  0  0  0
  3  1  1  0  0  0  0
  4  3  2  0  0  0  0
  5  2  1  0  0  0  0
  6 12  1  0  0  0  0
  7  1  2  0  0  0  0
  8  1  2  0  0  0  0
  9  1  1  0  0  0  0
 10  5  2  0  0  0  0
 11  3  1  0  0  0  0
 12 11  2  0  0  0  0
 13  5  1  0  0  0  0
 14  6  1  0  0  0  0
M  END
>  <MOLFORMULA>
C7 H5 Cl O5 S

>  <MOLWEIGHT>
2.366305000000000e+002

>  <code>
CD11776

>  <appearance>
solid

>  <purity>
97%

>  <product_name>
5-chlorosulfonyl-2-hydroxybenzoic acid

>  <cansmi>
OC(=O)c1cc(ccc1O)S(=O)(=O)Cl

>  <HBA2>
5

>  <HBD>
2

>  <logP>
2.0987

>  <TPSA>
100.05

>  <MW>
236.63

$$$$

 OpenBabel02131620232D

 13 13  0  0  0  0  0  0  0  0999 V2000
    4.4244   -2.1953    0.0000 C   0  0  0  0  0  0  0  0  0  0  0  0
    4.8798   -1.5679    0.0000 S   0  0  0  0  0  0  0  0  0  0  0  0
    5.1856   -0.7826    0.0000 O   0  0  0  0  0  0  0  0  0  0  0  0
    4.0875   -1.2561    0.0000 O   0  0  0  0  0  0  0  0  0  0  0  0
    5.6460   -1.6504    0.0000 Cl  0  0  0  0  0  0  0  0  0  0  0  0
    3.6492   -2.1957    0.0000 C   0  0  0  0  0  0  0  0  0  0  0  0
    3.4099   -2.9331    0.0000 C   0  0  0  0  0  0  0  0  0  0  0  0
    4.0374   -3.3886    0.0000 S   0  0  0  0  0  0  0  0  0  0  0  0
    4.6644   -2.9325    0.0000 C   0  0  0  0  0  0  0  0  0  0  0  0
    5.4018   -3.1717    0.0000 C   0  0  0  0  0  0  0  0  0  0  0  0
    5.5634   -3.9299    0.0000 O   0  0  0  0  0  0  0  0  0  0  0  0
    5.9777   -2.6526    0.0000 O   0  0  0  0  0  0  0  0  0  0  0  0
    6.7151   -2.8918    0.0000 C   0  0  0  0  0  0  0  0  0  0  0  0
  1  6  1  0  0  0  0
  2  1  1  0  0  0  0
  3  2  2  0  0  0  0
  4  2  2  0  0  0  0
  5  2  1  0  0  0  0
  6  7  2  0  0  0  0
  7  8  1  0  0  0  0
  8  9  1  0  0  0  0
  9  1  2  0  0  0  0
  9 10  1  0  0  0  0
 10 11  2  0  0  0  0
 10 12  1  0  0  0  0
 12 13  1  0  0  0  0
M  END
>  <MOLFORMULA>
C6 H5 Cl O4 S2

>  <MOLWEIGHT>
2.406865000000000e+002

>  <code>
GK00438

>  <appearance>
solid

>  <purity>
95%

>  <product_name>
methyl 3-chlorosulfonylthiophene-2-carboxylate

>  <cansmi>
COC(=O)c1sccc1S(=O)(=O)Cl

>  <HBA2>
5

>  <HBD>
0

>  <logP>
2.543

>  <TPSA>
97.06

>  <MW>
240.685

$$$$

 OpenBabel02131620232D

 15 15  0  0  0  0  0  0  0  0999 V2000
    3.3042    0.9875    0.0000 S   0  0  0  0  0  0  0  0  0  0  0  0
    1.9875    0.2083    0.0000 C   0  0  0  0  0  0  0  0  0  0  0  0
    0.6417    0.9583    0.0000 C   0  0  0  0  0  0  0  0  0  0  0  0
   -1.9875   -2.1500    0.0000 N   0  0  0  0  0  0  0  0  0  0  0  0
   -0.6583   -1.3667    0.0000 C   0  0  0  0  0  0  0  0  0  0  0  0
   -0.6833    0.1708    0.0000 C   0  0  0  0  0  0  0  0  0  0  0  0
    4.5000    2.1875    0.0000 O   0  0  0  0  0  0  0  0  0  0  0  0
    2.1042    2.1875    0.0000 O   0  0  0  0  0  0  0  0  0  0  0  0
   -3.3333   -1.4000    0.0000 C   0  0  0  0  0  0  0  0  0  0  0  0
    4.6542    0.2333    0.0000 Cl  0  0  0  0  0  0  0  0  0  0  0  0
    2.0042   -1.3292    0.0000 C   0  0  0  0  0  0  0  0  0  0  0  0
    0.6792   -2.1167    0.0000 C   0  0  0  0  0  0  0  0  0  0  0  0
   -3.3500    0.1458    0.0000 O   0  0  0  0  0  0  0  0  0  0  0  0
   -2.0250    0.9333    0.0000 Cl  0  0  0  0  0  0  0  0  0  0  0  0
   -4.6583   -2.1792    0.0000 C   0  0  0  0  0  0  0  0  0  0  0  0
  2  1  1  0  0  0  0
  3  2  2  0  0  0  0
  4  5  1  0  0  0  0
  5 12  1  0  0  0  0
  6  3  1  0  0  0  0
  6  5  2  0  0  0  0
  7  1  2  0  0  0  0
  8  1  2  0  0  0  0
  9  4  1  0  0  0  0
 10  1  1  0  0  0  0
 11  2  1  0  0  0  0
 12 11  2  0  0  0  0
 13  9  2  0  0  0  0
 14  6  1  0  0  0  0
 15  9  1  0  0  0  0
M  END
>  <MOLFORMULA>
C8 H7 Cl2 N O3 S

>  <MOLWEIGHT>
2.681193000000000e+002

>  <code>
HAN00134

>  <appearance>
solid

>  <purity>
97%

>  <product_name>
4-(acetylamino)-3-chlorobenzene-1-sulfonyl chloride

>  <cansmi>
CC(=O)Nc1ccc(cc1Cl)S(=O)(=O)Cl

>  <HBA2>
4

>  <HBD>
1

>  <logP>
3.3797

>  <TPSA>
71.62

>  <MW>
268.117

$$$$

 OpenBabel02131620232D

 16 17  0  0  0  0  0  0  0  0999 V2000
    4.6571   -2.4355    0.0000 C   0  0  0  0  0  0  0  0  0  0  0  0
    4.6504   -3.2508    0.0000 C   0  0  0  0  0  0  0  0  0  0  0  0
    5.3665   -2.0397    0.0000 C   0  0  0  0  0  0  0  0  0  0  0  0
    5.3463   -3.6660    0.0000 C   0  0  0  0  0  0  0  0  0  0  0  0
    6.0624   -2.4550    0.0000 C   0  0  0  0  0  0  0  0  0  0  0  0
    6.0523   -3.2639    0.0000 C   0  0  0  0  0  0  0  0  0  0  0  0
    6.7518   -3.6812    0.0000 S   0  0  0  0  0  0  0  0  0  0  0  0
    7.4612   -3.2927    0.0000 Cl  0  0  0  0  0  0  0  0  0  0  0  0
    3.9262   -2.0069    0.0000 N   0  0  0  0  0  0  0  0  0  0  0  0
    3.8492   -1.1658    0.0000 C   0  0  0  0  0  0  0  0  0  0  0  0
    3.0233   -0.9814    0.0000 C   0  0  0  0  0  0  0  0  0  0  0  0
    2.5905   -1.7079    0.0000 C   0  0  0  0  0  0  0  0  0  0  0  0
    3.1484   -2.3436    0.0000 C   0  0  0  0  0  0  0  0  0  0  0  0
    4.4850   -0.6040    0.0000 O   0  0  0  0  0  0  0  0  0  0  0  0
    6.1625   -4.2625    0.0000 O   0  0  0  0  0  0  0  0  0  0  0  0
    7.4625   -4.0917    0.0000 O   0  0  0  0  0  0  0  0  0  0  0  0
  1  9  1  0  0  0  0
  1  2  2  0  0  0  0
  1  3  1  0  0  0  0
  2  4  1  0  0  0  0
  3  5  2  0  0  0  0
  4  6  2  0  0  0  0
  5  6  1  0  0  0  0
  6  7  1  0  0  0  0
  7  8  1  0  0  0  0
  7 15  2  0  0  0  0
  7 16  2  0  0  0  0
  9 10  1  0  0  0  0
 10 11  1  0  0  0  0
 10 14  2  0  0  0  0
 11 12  1  0  0  0  0
 12 13  1  0  0  0  0
 13  9  1  0  0  0  0
M  END
>  <MOLFORMULA>
C10 H10 Cl N O3 S

>  <MOLWEIGHT>
2.597120000000000e+002

>  <code>
JFD00486

>  <appearance>
solid

>  <purity>
97%

>  <product_name>
4-(2-oxo-1-pyrrolidinyl)benzenesulfonyl chloride

>  <cansmi>
O=C1CCCN1c1ccc(cc1)S(=O)(=O)Cl

>  <HBA2>
4

>  <HBD>
0

>  <logP>
2.8867

>  <TPSA>
62.83

>  <MW>
259.709

$$$$

 OpenBabel02131620232D

 18 18  0  0  0  0  0  0  0  0999 V2000
    8.4208   -2.5292    0.0000 S   0  0  0  0  0  0  0  0  0  0  0  0
    7.4167   -0.7375    0.0000 C   0  0  0  0  0  0  0  0  0  0  0  0
    6.3625   -2.5042    0.0000 C   0  0  0  0  0  0  0  0  0  0  0  0
    7.9083   -2.2250    0.0000 C   0  0  0  0  0  0  0  0  0  0  0  0
    7.4042   -1.3375    0.0000 C   0  0  0  0  0  0  0  0  0  0  0  0
    6.8833   -2.2167    0.0000 C   0  0  0  0  0  0  0  0  0  0  0  0
    7.9167   -1.6375    0.0000 C   0  0  0  0  0  0  0  0  0  0  0  0
    7.3917   -2.5208    0.0000 C   0  0  0  0  0  0  0  0  0  0  0  0
    6.8917   -1.6250    0.0000 C   0  0  0  0  0  0  0  0  0  0  0  0
    8.8792   -2.9917    0.0000 O   0  0  0  0  0  0  0  0  0  0  0  0
    7.9583   -2.9917    0.0000 O   0  0  0  0  0  0  0  0  0  0  0  0
    8.9375   -2.2417    0.0000 Cl  0  0  0  0  0  0  0  0  0  0  0  0
    7.4250   -0.2000    0.0000 F   0  0  0  0  0  0  0  0  0  0  0  0
    6.9417   -0.3417    0.0000 F   0  0  0  0  0  0  0  0  0  0  0  0
    7.9042   -0.3500    0.0000 F   0  0  0  0  0  0  0  0  0  0  0  0
    6.2583   -3.1167    0.0000 F   0  0  0  0  0  0  0  0  0  0  0  0
    5.7875   -2.2792    0.0000 F   0  0  0  0  0  0  0  0  0  0  0  0
    5.8917   -2.7708    0.0000 F   0  0  0  0  0  0  0  0  0  0  0  0
  2  5  1  0  0  0  0
  3  6  1  0  0  0  0
  4  1  1  0  0  0  0
  5  7  2  0  0  0  0
  6  8  1  0  0  0  0
  7  4  1  0  0  0  0
  8  4  2  0  0  0  0
  9  6  2  0  0  0  0
  9  5  1  0  0  0  0
 10  1  2  0  0  0  0
 11  1  2  0  0  0  0
 12  1  1  0  0  0  0
 13  2  1  0  0  0  0
 14  2  1  0  0  0  0
 15  2  1  0  0  0  0
 16  3  1  0  0  0  0
 17  3  1  0  0  0  0
 18  3  1  0  0  0  0
M  END
>  <MOLFORMULA>
C8 H3 Cl F6 O2 S

>  <MOLWEIGHT>
3.126167000000000e+002

>  <code>
JP00937

>  <appearance>
solid

>  <purity>
97%

>  <product_name>
3,5-di(trifluoromethyl)benzene-1-sulfonyl chloride

>  <cansmi>
FC(c1cc(cc(c1)S(=O)(=O)Cl)C(F)(F)F)(F)F

>  <HBA2>
2

>  <HBD>
0

>  <logP>
4.7325

>  <TPSA>
42.52

>  <MW>
312.617

$$$$

 OpenBabel02131620232D

 10 10  0  0  0  0  0  0  0  0999 V2000
    0.0875   -2.1291    0.0000 S   0  0  0  0  0  0  0  0  0  0  0  0
    0.7568   -1.6467    0.0000 C   0  0  0  0  0  0  0  0  0  0  0  0
    0.5000   -0.8584    0.0000 C   0  0  0  0  0  0  0  0  0  0  0  0
   -0.3250   -0.8584    0.0000 C   0  0  0  0  0  0  0  0  0  0  0  0
   -0.5818   -1.6467    0.0000 C   0  0  0  0  0  0  0  0  0  0  0  0
   -1.3660   -1.9028    0.0000 Cl  0  0  0  0  0  0  0  0  0  0  0  0
    1.5410   -1.9028    0.0000 S   0  0  0  0  0  0  0  0  0  0  0  0
    2.1550   -1.3516    0.0000 Cl  0  0  0  0  0  0  0  0  0  0  0  0
    1.1208   -2.6125    0.0000 O   0  0  0  0  0  0  0  0  0  0  0  0
    2.2500   -2.3125    0.0000 O   0  0  0  0  0  0  0  0  0  0  0  0
  1  2  1  0  0  0  0
  2  7  1  0  0  0  0
  2  3  2  0  0  0  0
  3  4  1  0  0  0  0
  4  5  2  0  0  0  0
  5  1  1  0  0  0  0
  5  6  1  0  0  0  0
  7  8  1  0  0  0  0
  7  9  2  0  0  0  0
  7 10  2  0  0  0  0
M  END
>  <MOLFORMULA>
C4 H2 Cl2 O2 S2

>  <MOLWEIGHT>
2.170958000000000e+002

>  <code>
JW00059

>  <appearance>
solid

>  <purity>
97%

>  <product_name>
5-chlorothiophene-2-sulfonyl chloride

>  <cansmi>
Clc1ccc(s1)S(=O)(=O)Cl

>  <HBA2>
3

>  <HBD>
0

>  <logP>
3.4098

>  <TPSA>
70.76

>  <MW>
217.093

$$$$

 OpenBabel02131620232D

 11 11  0  0  0  0  0  0  0  0999 V2000
    1.3167    0.9583    0.0000 S   0  0  0  0  0  0  0  0  0  0  0  0
   -0.0083    0.1708    0.0000 C   0  0  0  0  0  0  0  0  0  0  0  0
    2.5042    2.1583    0.0000 O   0  0  0  0  0  0  0  0  0  0  0  0
    0.1167    2.1583    0.0000 O   0  0  0  0  0  0  0  0  0  0  0  0
    0.0167   -1.3667    0.0000 C   0  0  0  0  0  0  0  0  0  0  0  0
    2.6667    0.2000    0.0000 Cl  0  0  0  0  0  0  0  0  0  0  0  0
    1.3667   -2.1167    0.0000 F   0  0  0  0  0  0  0  0  0  0  0  0
   -1.3458    0.9333    0.0000 C   0  0  0  0  0  0  0  0  0  0  0  0
   -1.3083   -2.1542    0.0000 C   0  0  0  0  0  0  0  0  0  0  0  0
   -2.6708    0.1458    0.0000 C   0  0  0  0  0  0  0  0  0  0  0  0
   -2.6500   -1.4000    0.0000 C   0  0  0  0  0  0  0  0  0  0  0  0
  2  1  1  0  0  0  0
  3  1  2  0  0  0  0
  4  1  2  0  0  0  0
  5  2  1  0  0  0  0
  6  1  1  0  0  0  0
  7  5  1  0  0  0  0
  8  2  2  0  0  0  0
  9  5  2  0  0  0  0
 10  8  1  0  0  0  0
 11 10  2  0  0  0  0
 11  9  1  0  0  0  0
M  END
>  <MOLFORMULA>
C6 H4 Cl F O2 S

>  <MOLWEIGHT>
1.946126000000000e+002

>  <code>
KM01957

>  <appearance>
liquid

>  <purity>
97%

>  <product_name>
2-fluorobenzene-1-sulfonyl chloride

>  <cansmi>
Fc1ccccc1S(=O)(=O)Cl

>  <HBA2>
2

>  <HBD>
0

>  <logP>
2.834

>  <TPSA>
42.52

>  <MW>
194.611

$$$$

 OpenBabel02131620232D

 13 13  0  0  0  0  0  0  0  0999 V2000
    5.7542   -7.5874    0.0000 S   0  0  0  0  0  0  0  0  0  0  0  0
    6.4235   -7.1050    0.0000 C   0  0  0  0  0  0  0  0  0  0  0  0
    6.1667   -6.3167    0.0000 C   0  0  0  0  0  0  0  0  0  0  0  0
    5.3417   -6.3167    0.0000 C   0  0  0  0  0  0  0  0  0  0  0  0
    5.0849   -7.1050    0.0000 C   0  0  0  0  0  0  0  0  0  0  0  0
    4.3007   -7.3611    0.0000 Cl  0  0  0  0  0  0  0  0  0  0  0  0
    7.2077   -7.3611    0.0000 S   0  0  0  0  0  0  0  0  0  0  0  0
    7.8217   -6.8099    0.0000 Cl  0  0  0  0  0  0  0  0  0  0  0  0
    6.6167   -7.9416    0.0000 O   0  0  0  0  0  0  0  0  0  0  0  0
    7.9167   -7.7708    0.0000 O   0  0  0  0  0  0  0  0  0  0  0  0
    4.8514   -5.6425    0.0000 N   0  0  0  0  0  0  0  0  0  0  0  0
    4.0315   -5.7301    0.0000 O   0  0  0  0  0  0  0  0  0  0  0  0
    5.1877   -4.8904    0.0000 O   0  0  0  0  0  0  0  0  0  0  0  0
  1  2  1  0  0  0  0
  2  3  2  0  0  0  0
  2  7  1  0  0  0  0
  3  4  1  0  0  0  0
  4 11  1  0  0  0  0
  4  5  2  0  0  0  0
  5  1  1  0  0  0  0
  5  6  1  0  0  0  0
  7  8  1  0  0  0  0
  7  9  2  0  0  0  0
  7 10  2  0  0  0  0
 11 12  2  0  0  0  0
 11 13  2  0  0  0  0
M  END
>  <MOLFORMULA>
C4 H Cl2 N O4 S2

>  <MOLWEIGHT>
2.620929000000000e+002

>  <code>
KM02596

>  <appearance>
solid

>  <purity>
97%

>  <product_name>
5-chloro-4-nitrothiophene-2-sulfonyl chloride

>  <cansmi>
O=N(=O)c1cc(sc1Cl)S(=O)(=O)Cl

>  <HBA2>
3

>  <HBD>
0

>  <logP>
3.8412

>  <TPSA>
116.58

>  <MW>
262.091

$$$$

 OpenBabel02131620232D

 10 10  0  0  0  0  0  0  0  0999 V2000
   -1.1917   -0.4750    0.0000 S   0  0  0  0  0  0  0  0  0  0  0  0
   -0.5224    0.0075    0.0000 C   0  0  0  0  0  0  0  0  0  0  0  0
   -0.7792    0.7958    0.0000 C   0  0  0  0  0  0  0  0  0  0  0  0
   -1.6042    0.7958    0.0000 C   0  0  0  0  0  0  0  0  0  0  0  0
   -1.8610    0.0075    0.0000 C   0  0  0  0  0  0  0  0  0  0  0  0
   -2.6452   -0.2486    0.0000 Br  0  0  0  0  0  0  0  0  0  0  0  0
    0.2619   -0.2486    0.0000 S   0  0  0  0  0  0  0  0  0  0  0  0
    0.8758    0.3025    0.0000 Cl  0  0  0  0  0  0  0  0  0  0  0  0
   -0.1583   -0.9583    0.0000 O   0  0  0  0  0  0  0  0  0  0  0  0
    0.9708   -0.6583    0.0000 O   0  0  0  0  0  0  0  0  0  0  0  0
  1  2  1  0  0  0  0
  2  7  1  0  0  0  0
  2  3  2  0  0  0  0
  3  4  1  0  0  0  0
  4  5  2  0  0  0  0
  5  1  1  0  0  0  0
  5  6  1  0  0  0  0
  7  8  1  0  0  0  0
  7  9  2  0  0  0  0
  7 10  2  0  0  0  0
M  END
>  <MOLFORMULA>
C4 H2 Br Cl O2 S2

>  <MOLWEIGHT>
2.615468000000000e+002

>  <code>
KM03757

>  <appearance>
solid

>  <purity>
97%

>  <product_name>
5-bromothiophene-2-sulfonyl chloride

>  <cansmi>
Brc1ccc(s1)S(=O)(=O)Cl

>  <HBA2>
3

>  <HBD>
0

>  <logP>
3.5189

>  <TPSA>
70.76

>  <MW>
261.544

$$$$

 OpenBabel02131620232D

 19 20  0  0  0  0  0  0  0  0999 V2000
   -0.9334    1.0167    0.0000 S   0  0  0  0  0  0  0  0  0  0  0  0
   -0.2641    1.4992    0.0000 C   0  0  0  0  0  0  0  0  0  0  0  0
   -0.5209    2.2875    0.0000 C   0  0  0  0  0  0  0  0  0  0  0  0
   -1.3459    2.2875    0.0000 C   0  0  0  0  0  0  0  0  0  0  0  0
   -1.6027    1.4992    0.0000 C   0  0  0  0  0  0  0  0  0  0  0  0
   -2.3869    1.2431    0.0000 C   0  0  0  0  0  0  0  0  0  0  0  0
    0.5202    1.2431    0.0000 S   0  0  0  0  0  0  0  0  0  0  0  0
    1.1341    1.7942    0.0000 Cl  0  0  0  0  0  0  0  0  0  0  0  0
    0.1000    0.5334    0.0000 O   0  0  0  0  0  0  0  0  0  0  0  0
    1.2291    0.8334    0.0000 O   0  0  0  0  0  0  0  0  0  0  0  0
   -3.0572    1.7305    0.0000 C   0  0  0  0  0  0  0  0  0  0  0  0
   -3.7239    1.2446    0.0000 C   0  0  0  0  0  0  0  0  0  0  0  0
   -3.4678    0.4603    0.0000 N   0  0  0  0  0  0  0  0  0  0  0  0
   -2.6428    0.4617    0.0000 N   0  0  0  0  0  0  0  0  0  0  0  0
   -3.9516   -0.2079    0.0000 C   0  0  0  0  0  0  0  0  0  0  0  0
   -4.5089    1.4983    0.0000 C   0  0  0  0  0  0  0  0  0  0  0  0
   -4.6816    2.3050    0.0000 F   0  0  0  0  0  0  0  0  0  0  0  0
   -5.1212    0.9454    0.0000 F   0  0  0  0  0  0  0  0  0  0  0  0
   -4.0606    2.1909    0.0000 F   0  0  0  0  0  0  0  0  0  0  0  0
  1  2  1  0  0  0  0
  2  7  1  0  0  0  0
  2  3  2  0  0  0  0
  3  4  1  0  0  0  0
  4  5  2  0  0  0  0
  5  1  1  0  0  0  0
  5  6  1  0  0  0  0
  6 11  1  0  0  0  0
  7 10  2  0  0  0  0
  7  8  1  0  0  0  0
  7  9  2  0  0  0  0
 11 12  2  0  0  0  0
 12 13  1  0  0  0  0
 12 16  1  0  0  0  0
 13 14  1  0  0  0  0
 13 15  1  0  0  0  0
 14  6  2  0  0  0  0
 16 17  1  0  0  0  0
 16 18  1  0  0  0  0
 16 19  1  0  0  0  0
M  END
>  <MOLFORMULA>
C9 H6 Cl F3 N2 O2 S2

>  <MOLWEIGHT>
3.307374000000000e+002

>  <code>
KM03798

>  <appearance>
solid

>  <purity>
97%

>  <product_name>
5-[1-methyl-5-(trifluoromethyl)-1H-pyrazol-3-yl]thiophene-2-sulfonyl chloride

>  <cansmi>
Cn1nc(cc1C(F)(F)F)c1ccc(s1)S(=O)(=O)Cl

>  <HBA2>
5

>  <HBD>
0

>  <logP>
4.1757

>  <TPSA>
88.58

>  <MW>
330.734

$$$$

 OpenBabel02131620232D

 19 20  0  0  0  0  0  0  0  0999 V2000
    2.1208    0.1166    0.0000 S   0  0  0  0  0  0  0  0  0  0  0  0
    2.7942    0.5991    0.0000 C   0  0  0  0  0  0  0  0  0  0  0  0
    2.5374    1.3916    0.0000 C   0  0  0  0  0  0  0  0  0  0  0  0
    1.7041    1.3916    0.0000 C   0  0  0  0  0  0  0  0  0  0  0  0
    1.4473    0.5991    0.0000 C   0  0  0  0  0  0  0  0  0  0  0  0
    3.5827    0.3430    0.0000 S   0  0  0  0  0  0  0  0  0  0  0  0
    4.2008    0.8983    0.0000 Cl  0  0  0  0  0  0  0  0  0  0  0  0
    3.1583   -0.3708    0.0000 O   0  0  0  0  0  0  0  0  0  0  0  0
    4.2958   -0.0708    0.0000 O   0  0  0  0  0  0  0  0  0  0  0  0
    0.6589    0.3430    0.0000 C   0  0  0  0  0  0  0  0  0  0  0  0
   -0.0102    0.8311    0.0000 C   0  0  0  0  0  0  0  0  0  0  0  0
   -0.6808    0.3439    0.0000 C   0  0  0  0  0  0  0  0  0  0  0  0
   -0.4247   -0.4445    0.0000 N   0  0  0  0  0  0  0  0  0  0  0  0
    0.4042   -0.4444    0.0000 N   0  0  0  0  0  0  0  0  0  0  0  0
    0.8896   -1.1115    0.0000 C   0  0  0  0  0  0  0  0  0  0  0  0
   -1.4654    0.5989    0.0000 C   0  0  0  0  0  0  0  0  0  0  0  0
   -1.6369    1.4059    0.0000 F   0  0  0  0  0  0  0  0  0  0  0  0
   -2.0786    0.0469    0.0000 F   0  0  0  0  0  0  0  0  0  0  0  0
   -1.0161    1.2908    0.0000 F   0  0  0  0  0  0  0  0  0  0  0  0
  1  2  1  0  0  0  0
  2  6  1  0  0  0  0
  2  3  2  0  0  0  0
  3  4  1  0  0  0  0
  4  5  2  0  0  0  0
  5 10  1  0  0  0  0
  5  1  1  0  0  0  0
  6  9  2  0  0  0  0
  6  7  1  0  0  0  0
  6  8  2  0  0  0  0
 10 11  2  0  0  0  0
 11 12  1  0  0  0  0
 12 13  2  0  0  0  0
 12 16  1  0  0  0  0
 13 14  1  0  0  0  0
 14 10  1  0  0  0  0
 14 15  1  0  0  0  0
 16 17  1  0  0  0  0
 16 18  1  0  0  0  0
 16 19  1  0  0  0  0
M  END
>  <MOLFORMULA>
C9 H6 Cl F3 N2 O2 S2

>  <MOLWEIGHT>
3.307374000000000e+002

>  <code>
KM03954

>  <appearance>
solid

>  <purity>
97%

>  <product_name>
5-[1-methyl-3-(trifluoromethyl)-1H-pyrazol-5-yl]thiophene-2-sulfonyl chloride

>  <cansmi>
Cn1nc(cc1c1ccc(s1)S(=O)(=O)Cl)C(F)(F)F

>  <HBA2>
5

>  <HBD>
0

>  <logP>
4.1757

>  <TPSA>
88.58

>  <MW>
330.734

$$$$

 OpenBabel02131620232D

 17 18  0  0  0  0  0  0  0  0999 V2000
    1.7750    0.4958    0.0000 S   0  0  0  0  0  0  0  0  0  0  0  0
    2.4484    0.9783    0.0000 C   0  0  0  0  0  0  0  0  0  0  0  0
    2.1916    1.7708    0.0000 C   0  0  0  0  0  0  0  0  0  0  0  0
    1.3583    1.7708    0.0000 C   0  0  0  0  0  0  0  0  0  0  0  0
    1.1015    0.9783    0.0000 C   0  0  0  0  0  0  0  0  0  0  0  0
    3.2369    0.7222    0.0000 S   0  0  0  0  0  0  0  0  0  0  0  0
    3.8550    1.2775    0.0000 Cl  0  0  0  0  0  0  0  0  0  0  0  0
    2.8125    0.0084    0.0000 O   0  0  0  0  0  0  0  0  0  0  0  0
    3.9500    0.3084    0.0000 O   0  0  0  0  0  0  0  0  0  0  0  0
    0.3131    0.7222    0.0000 C   0  0  0  0  0  0  0  0  0  0  0  0
   -0.2994    1.2782    0.0000 N   0  0  0  0  0  0  0  0  0  0  0  0
   -1.0871    1.0227    0.0000 C   0  0  0  0  0  0  0  0  0  0  0  0
   -1.2602    0.2111    0.0000 N   0  0  0  0  0  0  0  0  0  0  0  0
   -0.6392   -0.3445    0.0000 C   0  0  0  0  0  0  0  0  0  0  0  0
    0.1462   -0.0861    0.0000 C   0  0  0  0  0  0  0  0  0  0  0  0
   -1.6999    1.5751    0.0000 S   0  0  0  0  0  0  0  0  0  0  0  0
   -2.4847    1.3206    0.0000 C   0  0  0  0  0  0  0  0  0  0  0  0
  1  2  1  0  0  0  0
  2  3  2  0  0  0  0
  2  6  1  0  0  0  0
  3  4  1  0  0  0  0
  4  5  2  0  0  0  0
  5 10  1  0  0  0  0
  5  1  1  0  0  0  0
  6  7  1  0  0  0  0
  6  8  2  0  0  0  0
  6  9  2  0  0  0  0
 10 11  2  0  0  0  0
 11 12  1  0  0  0  0
 12 13  2  0  0  0  0
 12 16  1  0  0  0  0
 13 14  1  0  0  0  0
 14 15  2  0  0  0  0
 15 10  1  0  0  0  0
 16 17  1  0  0  0  0
M  END
>  <MOLFORMULA>
C9 H7 Cl N2 O2 S3

>  <MOLWEIGHT>
3.068173000000000e+002

>  <code>
KM04095

>  <appearance>
solid

>  <purity>
95%

>  <product_name>
5-[2-(methylthio)pyrimidin-4-yl]thiophene-2-sulfonyl chloride

>  <cansmi>
CSc1nccc(n1)c1ccc(s1)S(=O)(=O)Cl

>  <HBA2>
6

>  <HBD>
0

>  <logP>
3.9353

>  <TPSA>
121.84

>  <MW>
306.812

$$$$

 OpenBabel02131620232D

 19 20  0  0  0  0  0  0  0  0999 V2000
    0.2083    0.4708    0.0000 S   0  0  0  0  0  0  0  0  0  0  0  0
    0.8817    0.9533    0.0000 C   0  0  0  0  0  0  0  0  0  0  0  0
    0.6249    1.7458    0.0000 C   0  0  0  0  0  0  0  0  0  0  0  0
   -0.2084    1.7458    0.0000 C   0  0  0  0  0  0  0  0  0  0  0  0
   -0.4652    0.9533    0.0000 C   0  0  0  0  0  0  0  0  0  0  0  0
    1.6702    0.6972    0.0000 S   0  0  0  0  0  0  0  0  0  0  0  0
    2.2883    1.2525    0.0000 Cl  0  0  0  0  0  0  0  0  0  0  0  0
    1.2458   -0.0166    0.0000 O   0  0  0  0  0  0  0  0  0  0  0  0
    2.3833    0.2834    0.0000 O   0  0  0  0  0  0  0  0  0  0  0  0
   -1.2536    0.6972    0.0000 C   0  0  0  0  0  0  0  0  0  0  0  0
   -1.8666    1.2493    0.0000 N   0  0  0  0  0  0  0  0  0  0  0  0
   -2.6513    0.9944    0.0000 C   0  0  0  0  0  0  0  0  0  0  0  0
   -3.2643    1.5465    0.0000 C   0  0  0  0  0  0  0  0  0  0  0  0
   -2.8228    0.1874    0.0000 O   0  0  0  0  0  0  0  0  0  0  0  0
   -3.0882    2.3500    0.0000 C   0  0  0  0  0  0  0  0  0  0  0  0
   -3.7005    2.9018    0.0000 C   0  0  0  0  0  0  0  0  0  0  0  0
   -4.4861    2.6471    0.0000 C   0  0  0  0  0  0  0  0  0  0  0  0
   -4.6560    1.8354    0.0000 C   0  0  0  0  0  0  0  0  0  0  0  0
   -4.0424    1.2871    0.0000 C   0  0  0  0  0  0  0  0  0  0  0  0
  1  2  1  0  0  0  0
  2  6  1  0  0  0  0
  2  3  2  0  0  0  0
  3  4  1  0  0  0  0
  4  5  2  0  0  0  0
  5 10  1  0  0  0  0
  5  1  1  0  0  0  0
  6  7  1  0  0  0  0
  6  8  2  0  0  0  0
  6  9  2  0  0  0  0
 10 11  1  0  0  0  0
 11 12  1  0  0  0  0
 12 13  1  0  0  0  0
 12 14  2  0  0  0  0
 13 15  2  0  0  0  0
 15 16  1  0  0  0  0
 16 17  2  0  0  0  0
 17 18  1  0  0  0  0
 18 19  2  0  0  0  0
 19 13  1  0  0  0  0
M  END
>  <MOLFORMULA>
C12 H10 Cl N O3 S2

>  <MOLWEIGHT>
3.158000000000000e+002

>  <code>
KM04426

>  <appearance>
solid

>  <purity>
97%

>  <product_name>
5-[(benzoylamino)methyl]thiophene-2-sulfonyl chloride

>  <cansmi>
O=C(c1ccccc1)NCc1ccc(s1)S(=O)(=O)Cl

>  <HBA2>
5

>  <HBD>
1

>  <logP>
4.0773

>  <TPSA>
99.86

>  <MW>
315.796

$$$$

 OpenBabel02131620232D

 18 19  0  0  0  0  0  0  0  0999 V2000
    0.8000    0.1250    0.0000 S   0  0  0  0  0  0  0  0  0  0  0  0
    1.4734    0.6075    0.0000 C   0  0  0  0  0  0  0  0  0  0  0  0
    1.2166    1.4000    0.0000 C   0  0  0  0  0  0  0  0  0  0  0  0
    0.3833    1.4000    0.0000 C   0  0  0  0  0  0  0  0  0  0  0  0
    0.1265    0.6075    0.0000 C   0  0  0  0  0  0  0  0  0  0  0  0
    2.2619    0.3514    0.0000 S   0  0  0  0  0  0  0  0  0  0  0  0
    2.8800    0.9067    0.0000 Cl  0  0  0  0  0  0  0  0  0  0  0  0
    1.8375   -0.3624    0.0000 O   0  0  0  0  0  0  0  0  0  0  0  0
    2.9750   -0.0624    0.0000 O   0  0  0  0  0  0  0  0  0  0  0  0
   -0.1019    2.0672    0.0000 S   0  0  0  0  0  0  0  0  0  0  0  0
   -0.9223    1.9806    0.0000 C   0  0  0  0  0  0  0  0  0  0  0  0
   -1.4046    2.6532    0.0000 C   0  0  0  0  0  0  0  0  0  0  0  0
   -2.2243    2.5670    0.0000 C   0  0  0  0  0  0  0  0  0  0  0  0
   -2.5604    1.8126    0.0000 C   0  0  0  0  0  0  0  0  0  0  0  0
   -2.0705    1.1435    0.0000 C   0  0  0  0  0  0  0  0  0  0  0  0
   -1.2525    1.2330    0.0000 C   0  0  0  0  0  0  0  0  0  0  0  0
   -0.5208    2.7875    0.0000 O   0  0  0  0  0  0  0  0  0  0  0  0
    0.6083    2.4875    0.0000 O   0  0  0  0  0  0  0  0  0  0  0  0
  1  2  1  0  0  0  0
  2  6  1  0  0  0  0
  2  3  2  0  0  0  0
  3  4  1  0  0  0  0
  4 10  1  0  0  0  0
  4  5  2  0  0  0  0
  5  1  1  0  0  0  0
  6  7  1  0  0  0  0
  6  8  2  0  0  0  0
  6  9  2  0  0  0  0
 10 11  1  0  0  0  0
 10 17  2  0  0  0  0
 10 18  2  0  0  0  0
 11 12  2  0  0  0  0
 12 13  1  0  0  0  0
 13 14  2  0  0  0  0
 14 15  1  0  0  0  0
 15 16  2  0  0  0  0
 16 11  1  0  0  0  0
M  END
>  <MOLFORMULA>
C10 H7 Cl O4 S3

>  <MOLWEIGHT>
3.228123000000000e+002

>  <code>
KM04646

>  <appearance>
solid

>  <purity>
97%

>  <product_name>
4-(phenylsulfonyl)thiophene-2-sulfonylchloride

>  <cansmi>
O=S(=O)(c1csc(c1)S(=O)(=O)Cl)c1ccccc1

>  <HBA2>
5

>  <HBD>
0

>  <logP>
4.67

>  <TPSA>
113.28

>  <MW>
322.808

$$$$

 OpenBabel02131620232D

 18 19  0  0  0  0  0  0  0  0999 V2000
   -0.5500   -0.5958    0.0000 S   0  0  0  0  0  0  0  0  0  0  0  0
    0.1234   -0.1133    0.0000 C   0  0  0  0  0  0  0  0  0  0  0  0
   -0.1334    0.6792    0.0000 C   0  0  0  0  0  0  0  0  0  0  0  0
   -0.9667    0.6792    0.0000 C   0  0  0  0  0  0  0  0  0  0  0  0
   -1.2235   -0.1133    0.0000 C   0  0  0  0  0  0  0  0  0  0  0  0
    0.9119   -0.3694    0.0000 S   0  0  0  0  0  0  0  0  0  0  0  0
    1.5300    0.1859    0.0000 Cl  0  0  0  0  0  0  0  0  0  0  0  0
    0.4875   -1.0832    0.0000 O   0  0  0  0  0  0  0  0  0  0  0  0
    1.6250   -0.7832    0.0000 O   0  0  0  0  0  0  0  0  0  0  0  0
   -2.0072   -0.3712    0.0000 S   0  0  0  0  0  0  0  0  0  0  0  0
   -2.6223    0.1785    0.0000 C   0  0  0  0  0  0  0  0  0  0  0  0
   -2.7250   -0.7792    0.0000 O   0  0  0  0  0  0  0  0  0  0  0  0
   -1.6000   -1.0833    0.0000 O   0  0  0  0  0  0  0  0  0  0  0  0
   -2.4484    0.9855    0.0000 C   0  0  0  0  0  0  0  0  0  0  0  0
   -3.0627    1.5350    0.0000 C   0  0  0  0  0  0  0  0  0  0  0  0
   -3.8473    1.2773    0.0000 C   0  0  0  0  0  0  0  0  0  0  0  0
   -4.0141    0.4649    0.0000 C   0  0  0  0  0  0  0  0  0  0  0  0
   -3.3985   -0.0810    0.0000 C   0  0  0  0  0  0  0  0  0  0  0  0
  1  2  1  0  0  0  0
  2  6  1  0  0  0  0
  2  3  2  0  0  0  0
  3  4  1  0  0  0  0
  4  5  2  0  0  0  0
  5 10  1  0  0  0  0
  5  1  1  0  0  0  0
  6  7  1  0  0  0  0
  6  8  2  0  0  0  0
  6  9  2  0  0  0  0
 10 11  1  0  0  0  0
 10 12  2  0  0  0  0
 10 13  2  0  0  0  0
 11 14  2  0  0  0  0
 14 15  1  0  0  0  0
 15 16  2  0  0  0  0
 16 17  1  0  0  0  0
 17 18  2  0  0  0  0
 18 11  1  0  0  0  0
M  END
>  <MOLFORMULA>
C10 H7 Cl O4 S3

>  <MOLWEIGHT>
3.228123000000000e+002

>  <code>
KM04729

>  <appearance>
solid

>  <purity>
TECH

>  <product_name>
5-(phenylsulfonyl)thiophene-2-sulfonylchloride

>  <cansmi>
O=S(=O)(c1ccc(s1)S(=O)(=O)Cl)c1ccccc1

>  <HBA2>
5

>  <HBD>
0

>  <logP>
4.67

>  <TPSA>
113.28

>  <MW>
322.808

$$$$

 OpenBabel02131620232D

 15 15  0  0  0  0  0  0  0  0999 V2000
   -1.7875    0.1209    0.0000 S   0  0  0  0  0  0  0  0  0  0  0  0
   -1.1182    0.6033    0.0000 C   0  0  0  0  0  0  0  0  0  0  0  0
   -1.3750    1.3916    0.0000 C   0  0  0  0  0  0  0  0  0  0  0  0
   -2.2000    1.3916    0.0000 C   0  0  0  0  0  0  0  0  0  0  0  0
   -2.4568    0.6033    0.0000 C   0  0  0  0  0  0  0  0  0  0  0  0
   -0.3340    0.3472    0.0000 S   0  0  0  0  0  0  0  0  0  0  0  0
    0.2800    0.8984    0.0000 Cl  0  0  0  0  0  0  0  0  0  0  0  0
   -0.8903    2.0593    0.0000 O   0  0  0  0  0  0  0  0  0  0  0  0
   -0.0698    1.9733    0.0000 C   0  0  0  0  0  0  0  0  0  0  0  0
   -2.6847    2.0593    0.0000 C   0  0  0  0  0  0  0  0  0  0  0  0
   -2.3488    2.8128    0.0000 O   0  0  0  0  0  0  0  0  0  0  0  0
   -3.5052    1.9733    0.0000 O   0  0  0  0  0  0  0  0  0  0  0  0
   -3.9898    2.6410    0.0000 C   0  0  0  0  0  0  0  0  0  0  0  0
   -0.9250   -0.2333    0.0000 O   0  0  0  0  0  0  0  0  0  0  0  0
    0.3750   -0.0625    0.0000 O   0  0  0  0  0  0  0  0  0  0  0  0
  1  2  1  0  0  0  0
  2  3  2  0  0  0  0
  2  6  1  0  0  0  0
  3  8  1  0  0  0  0
  3  4  1  0  0  0  0
  4 10  1  0  0  0  0
  4  5  2  0  0  0  0
  5  1  1  0  0  0  0
  6 14  2  0  0  0  0
  6  7  1  0  0  0  0
  6 15  2  0  0  0  0
  8  9  1  0  0  0  0
 10 11  2  0  0  0  0
 10 12  1  0  0  0  0
 12 13  1  0  0  0  0
M  END
>  <MOLFORMULA>
C7 H7 Cl O5 S2

>  <MOLWEIGHT>
2.707123000000000e+002

>  <code>
KM07721

>  <appearance>
solid

>  <purity>
97%

>  <product_name>
methyl 5-chlorosulfonyl-4-methoxythiophene-3-carboxylate

>  <cansmi>
COC(=O)c1csc(c1OC)S(=O)(=O)Cl

>  <HBA2>
6

>  <HBD>
0

>  <logP>
2.5516

>  <TPSA>
106.29

>  <MW>
270.71

$$$$

 OpenBabel02131620232D

 14 14  0  0  0  0  0  0  0  0999 V2000
    2.6667    0.7750    0.0000 S   0  0  0  0  0  0  0  0  0  0  0  0
   -2.6625    0.7750    0.0000 N   0  0  0  0  0  0  0  0  0  0  0  0
   -1.3333    0.0000    0.0000 C   0  0  0  0  0  0  0  0  0  0  0  0
    0.0042    0.7750    0.0000 C   0  0  0  0  0  0  0  0  0  0  0  0
    1.3292    0.0000    0.0000 C   0  0  0  0  0  0  0  0  0  0  0  0
    1.4625    1.9708    0.0000 O   0  0  0  0  0  0  0  0  0  0  0  0
    3.8292    2.0708    0.0000 O   0  0  0  0  0  0  0  0  0  0  0  0
   -2.6583    2.3083    0.0000 O   0  0  0  0  0  0  0  0  0  0  0  0
   -3.9958    0.0000    0.0000 O   0  0  0  0  0  0  0  0  0  0  0  0
   -1.3333   -1.5375    0.0000 C   0  0  0  0  0  0  0  0  0  0  0  0
    3.9875    0.0000    0.0000 Cl  0  0  0  0  0  0  0  0  0  0  0  0
    1.3292   -1.5375    0.0000 C   0  0  0  0  0  0  0  0  0  0  0  0
    0.0042   -2.3042    0.0000 C   0  0  0  0  0  0  0  0  0  0  0  0
   -2.6625   -2.3042    0.0000 C   0  0  0  0  0  0  0  0  0  0  0  0
  2  3  1  0  0  0  0
  3  4  1  0  0  0  0
  4  5  2  0  0  0  0
  5  1  1  0  0  0  0
  6  1  2  0  0  0  0
  7  1  2  0  0  0  0
  8  2  2  0  0  0  0
  9  2  2  0  0  0  0
 10 13  1  0  0  0  0
 10  3  2  0  0  0  0
 11  1  1  0  0  0  0
 12  5  1  0  0  0  0
 13 12  2  0  0  0  0
 14 10  1  0  0  0  0
M  END
>  <MOLFORMULA>
C7 H6 Cl N O4 S

>  <MOLWEIGHT>
2.356464000000000e+002

>  <code>
KM08627

>  <appearance>
solid

>  <purity>
97%

>  <product_name>
4-methyl-3-nitrobenzene-1-sulfonyl chloride

>  <cansmi>
O=N(=O)c1cc(ccc1C)S(=O)(=O)Cl

>  <HBA2>
2

>  <HBD>
0

>  <logP>
3.4347

>  <TPSA>
88.34

>  <MW>
235.645

$$$$

 OpenBabel02131620232D

 14 15  0  0  0  0  0  0  0  0999 V2000
   -0.0667    0.3083    0.0000 C   0  0  0  0  0  0  0  0  0  0  0  0
   -0.0667   -1.3417    0.0000 C   0  0  0  0  0  0  0  0  0  0  0  0
    0.6500   -0.1083    0.0000 C   0  0  0  0  0  0  0  0  0  0  0  0
    0.6500   -0.9333    0.0000 C   0  0  0  0  0  0  0  0  0  0  0  0
    1.3625    0.3125    0.0000 Cl  0  0  0  0  0  0  0  0  0  0  0  0
   -0.7792   -0.1083    0.0000 C   0  0  0  0  0  0  0  0  0  0  0  0
   -0.7834   -0.9332    0.0000 C   0  0  0  0  0  0  0  0  0  0  0  0
   -1.5676   -1.1853    0.0000 N   0  0  0  0  0  0  0  0  0  0  0  0
   -2.0488   -0.5142    0.0000 O   0  0  0  0  0  0  0  0  0  0  0  0
   -1.5607    0.1476    0.0000 N   0  0  0  0  0  0  0  0  0  0  0  0
   -0.0678    1.1333    0.0000 S   0  0  0  0  0  0  0  0  0  0  0  0
    0.6462    1.5467    0.0000 O   0  0  0  0  0  0  0  0  0  0  0  0
   -0.7828    1.5449    0.0000 O   0  0  0  0  0  0  0  0  0  0  0  0
    0.6417    0.7208    0.0000 Cl  0  0  0  0  0  0  0  0  0  0  0  0
  1  6  1  0  0  0  0
  1 11  1  0  0  0  0
  2  7  1  0  0  0  0
  2  4  2  0  0  0  0
  3  1  2  0  0  0  0
  4  3  1  0  0  0  0
  5  3  1  0  0  0  0
  6  7  1  0  0  0  0
  7  8  2  0  0  0  0
  8  9  1  0  0  0  0
  9 10  1  0  0  0  0
 10  6  2  0  0  0  0
 11 12  2  0  0  0  0
 11 13  2  0  0  0  0
 11 14  1  0  0  0  0
M  END
>  <MOLFORMULA>
C6 H2 Cl2 N2 O3 S

>  <MOLWEIGHT>
2.530648000000000e+002

>  <code>
KM08674

>  <appearance>
solid

>  <purity>
97%

>  <product_name>
5-chloro-2,1,3-benzoxadiazole-4-sulfonyl chloride

>  <cansmi>
Clc1ccc2c(c1S(=O)(=O)Cl)non2

>  <HBA2>
5

>  <HBD>
0

>  <logP>
2.8845

>  <TPSA>
81.44

>  <MW>
253.063

$$$$

 OpenBabel02131620232D

 18 19  0  0  0  0  0  0  0  0999 V2000
    0.7417   -0.8458    0.0000 S   0  0  0  0  0  0  0  0  0  0  0  0
    1.4151   -0.3633    0.0000 C   0  0  0  0  0  0  0  0  0  0  0  0
    1.1583    0.4292    0.0000 C   0  0  0  0  0  0  0  0  0  0  0  0
    0.3250    0.4292    0.0000 C   0  0  0  0  0  0  0  0  0  0  0  0
    0.0682   -0.3633    0.0000 C   0  0  0  0  0  0  0  0  0  0  0  0
    2.2036   -0.6194    0.0000 S   0  0  0  0  0  0  0  0  0  0  0  0
    2.8217   -0.0641    0.0000 Cl  0  0  0  0  0  0  0  0  0  0  0  0
    1.7792   -1.3332    0.0000 O   0  0  0  0  0  0  0  0  0  0  0  0
    2.9167   -1.0332    0.0000 O   0  0  0  0  0  0  0  0  0  0  0  0
   -0.7155   -0.6212    0.0000 C   0  0  0  0  0  0  0  0  0  0  0  0
   -1.3849   -0.1335    0.0000 C   0  0  0  0  0  0  0  0  0  0  0  0
   -2.0506   -0.6209    0.0000 C   0  0  0  0  0  0  0  0  0  0  0  0
   -1.7927   -1.4046    0.0000 O   0  0  0  0  0  0  0  0  0  0  0  0
   -0.9677   -1.4014    0.0000 N   0  0  0  0  0  0  0  0  0  0  0  0
   -2.8361   -0.3689    0.0000 C   0  0  0  0  0  0  0  0  0  0  0  0
   -3.0107    0.4374    0.0000 F   0  0  0  0  0  0  0  0  0  0  0  0
   -3.4472   -0.9232    0.0000 F   0  0  0  0  0  0  0  0  0  0  0  0
   -2.3894    0.3247    0.0000 F   0  0  0  0  0  0  0  0  0  0  0  0
  1  2  1  0  0  0  0
  2  6  1  0  0  0  0
  2  3  2  0  0  0  0
  3  4  1  0  0  0  0
  4  5  2  0  0  0  0
  5 10  1  0  0  0  0
  5  1  1  0  0  0  0
  6  7  1  0  0  0  0
  6  8  2  0  0  0  0
  6  9  2  0  0  0  0
 10 11  1  0  0  0  0
 11 12  2  0  0  0  0
 12 13  1  0  0  0  0
 12 15  1  0  0  0  0
 13 14  1  0  0  0  0
 14 10  2  0  0  0  0
 15 16  1  0  0  0  0
 15 17  1  0  0  0  0
 15 18  1  0  0  0  0
M  END
>  <MOLFORMULA>
C8 H3 Cl F3 N O3 S2

>  <MOLWEIGHT>
3.176947000000000e+002

>  <code>
KM09559

>  <appearance>
solid

>  <purity>
97%

>  <product_name>
5-[5-(trifluoromethyl)isoxazol-3-yl]thiophene-2-sulfonyl chloride

>  <cansmi>
FC(c1onc(c1)c1ccc(s1)S(=O)(=O)Cl)(F)F

>  <HBA2>
5

>  <HBD>
0

>  <logP>
4.4302

>  <TPSA>
96.79

>  <MW>
317.693

$$$$

 OpenBabel02131620232D

 11 11  0  0  0  0  0  0  0  0999 V2000
   -1.0042    0.0875    0.0000 N   0  0  0  0  0  0  0  0  0  0  0  0
   -0.3349    0.5700    0.0000 C   0  0  0  0  0  0  0  0  0  0  0  0
   -0.5917    1.3583    0.0000 C   0  0  0  0  0  0  0  0  0  0  0  0
   -1.4167    1.3583    0.0000 N   0  0  0  0  0  0  0  0  0  0  0  0
   -1.6735    0.5700    0.0000 C   0  0  0  0  0  0  0  0  0  0  0  0
   -2.4577    0.3139    0.0000 C   0  0  0  0  0  0  0  0  0  0  0  0
   -1.0042   -0.7375    0.0000 C   0  0  0  0  0  0  0  0  0  0  0  0
   -0.1070    2.0259    0.0000 S   0  0  0  0  0  0  0  0  0  0  0  0
    0.7135    1.9400    0.0000 Cl  0  0  0  0  0  0  0  0  0  0  0  0
   -0.8250    2.4417    0.0000 O   0  0  0  0  0  0  0  0  0  0  0  0
    0.3000    2.7458    0.0000 O   0  0  0  0  0  0  0  0  0  0  0  0
  1  7  1  0  0  0  0
  1  2  1  0  0  0  0
  2  3  2  0  0  0  0
  3  8  1  0  0  0  0
  3  4  1  0  0  0  0
  4  5  2  0  0  0  0
  5  6  1  0  0  0  0
  5  1  1  0  0  0  0
  8  9  1  0  0  0  0
  8 10  2  0  0  0  0
  8 11  2  0  0  0  0
M  END
>  <MOLFORMULA>
C5 H7 Cl N2 O2 S

>  <MOLWEIGHT>
1.946413000000000e+002

>  <code>
KM10104

>  <appearance>
solid

>  <purity>
95%

>  <product_name>
1,2-dimethyl-1H-imidazole-4-sulfonyl chloride

>  <cansmi>
Cn1cc(nc1C)S(=O)(=O)Cl

>  <HBA2>
4

>  <HBD>
0

>  <logP>
1.7368

>  <TPSA>
60.34

>  <MW>
194.639

$$$$

 OpenBabel02131620232D

 11 11  0  0  0  0  0  0  0  0999 V2000
   -1.8167   -0.4125    0.0000 S   0  0  0  0  0  0  0  0  0  0  0  0
   -1.1474    0.0700    0.0000 C   0  0  0  0  0  0  0  0  0  0  0  0
   -1.4042    0.8583    0.0000 C   0  0  0  0  0  0  0  0  0  0  0  0
   -2.2292    0.8583    0.0000 C   0  0  0  0  0  0  0  0  0  0  0  0
   -2.4860    0.0700    0.0000 C   0  0  0  0  0  0  0  0  0  0  0  0
   -3.2702   -0.1861    0.0000 C   0  0  0  0  0  0  0  0  0  0  0  0
   -0.3631   -0.1861    0.0000 C   0  0  0  0  0  0  0  0  0  0  0  0
   -0.9195    1.5259    0.0000 S   0  0  0  0  0  0  0  0  0  0  0  0
   -0.0990    1.4400    0.0000 Cl  0  0  0  0  0  0  0  0  0  0  0  0
   -1.7208    1.7458    0.0000 O   0  0  0  0  0  0  0  0  0  0  0  0
   -0.7083    2.3292    0.0000 O   0  0  0  0  0  0  0  0  0  0  0  0
  1  2  1  0  0  0  0
  2  7  1  0  0  0  0
  2  3  2  0  0  0  0
  3  8  1  0  0  0  0
  3  4  1  0  0  0  0
  4  5  2  0  0  0  0
  5  6  1  0  0  0  0
  5  1  1  0  0  0  0
  8  9  1  0  0  0  0
  8 10  2  0  0  0  0
  8 11  2  0  0  0  0
M  END
>  <MOLFORMULA>
C6 H7 Cl O2 S2

>  <MOLWEIGHT>
2.107043000000000e+002

>  <code>
MO00053

>  <appearance>
liquid

>  <purity>
97%

>  <product_name>
2,5-dimethyl-3-thiophenesulfonyl chloride

>  <cansmi>
Cc1sc(c(c1)S(=O)(=O)Cl)C

>  <HBA2>
3

>  <HBD>
0

>  <logP>
3.3732

>  <TPSA>
70.76

>  <MW>
210.702

$$$$

 OpenBabel02131620232D

 19 20  0  0  0  0  0  0  0  0999 V2000
   -0.6625   -5.6000    0.0000 O   0  0  0  0  0  0  0  0  0  0  0  0
    0.0068   -5.1175    0.0000 C   0  0  0  0  0  0  0  0  0  0  0  0
   -0.2500   -4.3292    0.0000 N   0  0  0  0  0  0  0  0  0  0  0  0
   -1.0750   -4.3292    0.0000 C   0  0  0  0  0  0  0  0  0  0  0  0
   -1.3318   -5.1175    0.0000 N   0  0  0  0  0  0  0  0  0  0  0  0
    0.7910   -5.3736    0.0000 C   0  0  0  0  0  0  0  0  0  0  0  0
    0.9614   -6.1808    0.0000 O   0  0  0  0  0  0  0  0  0  0  0  0
    1.4050   -4.8225    0.0000 O   0  0  0  0  0  0  0  0  0  0  0  0
    2.1892   -5.0786    0.0000 C   0  0  0  0  0  0  0  0  0  0  0  0
    2.8031   -4.5275    0.0000 C   0  0  0  0  0  0  0  0  0  0  0  0
   -1.5597   -3.6616    0.0000 C   0  0  0  0  0  0  0  0  0  0  0  0
   -1.3074   -2.8746    0.0000 C   0  0  0  0  0  0  0  0  0  0  0  0
   -1.9746   -2.3894    0.0000 C   0  0  0  0  0  0  0  0  0  0  0  0
   -2.6423   -2.8741    0.0000 C   0  0  0  0  0  0  0  0  0  0  0  0
   -2.3876   -3.6588    0.0000 S   0  0  0  0  0  0  0  0  0  0  0  0
   -3.4269   -2.6189    0.0000 S   0  0  0  0  0  0  0  0  0  0  0  0
   -4.1458   -3.0250    0.0000 Cl  0  0  0  0  0  0  0  0  0  0  0  0
   -4.0167   -2.0292    0.0000 O   0  0  0  0  0  0  0  0  0  0  0  0
   -2.8458   -2.0292    0.0000 O   0  0  0  0  0  0  0  0  0  0  0  0
  1  2  1  0  0  0  0
  2  6  1  0  0  0  0
  2  3  2  0  0  0  0
  3  4  1  0  0  0  0
  4 11  1  0  0  0  0
  4  5  2  0  0  0  0
  5  1  1  0  0  0  0
  6  7  2  0  0  0  0
  6  8  1  0  0  0  0
  8  9  1  0  0  0  0
  9 10  1  0  0  0  0
 11 12  2  0  0  0  0
 12 13  1  0  0  0  0
 13 14  2  0  0  0  0
 14 15  1  0  0  0  0
 14 16  1  0  0  0  0
 15 11  1  0  0  0  0
 16 17  1  0  0  0  0
 16 18  2  0  0  0  0
 16 19  2  0  0  0  0
M  END
>  <MOLFORMULA>
C9 H7 Cl N2 O5 S2

>  <MOLWEIGHT>
3.227483000000000e+002

>  <code>
MO00134

>  <appearance>
solid

>  <purity>
97%

>  <product_name>
ethyl 3-[5-(chlorosulfonyl)-2-thienyl]-1,2,4-oxadiazole-5-carboxylate

>  <cansmi>
CCOC(=O)c1onc(n1)c1ccc(s1)S(=O)(=O)Cl

>  <HBA2>
8

>  <HBD>
0

>  <logP>
2.9831

>  <TPSA>
135.98

>  <MW>
322.745

$$$$

 OpenBabel02131620232D

 16 17  0  0  0  0  0  0  0  0999 V2000
    7.1084   -2.1584    0.0000 S   0  0  0  0  0  0  0  0  0  0  0  0
    6.4208   -2.5583    0.0000 C   0  0  0  0  0  0  0  0  0  0  0  0
    5.0583   -2.5625    0.0000 C   0  0  0  0  0  0  0  0  0  0  0  0
    5.7333   -2.1667    0.0000 C   0  0  0  0  0  0  0  0  0  0  0  0
    6.4208   -1.7625    0.0000 O   0  0  0  0  0  0  0  0  0  0  0  0
    7.7875   -1.7625    0.0000 O   0  0  0  0  0  0  0  0  0  0  0  0
    7.7958   -2.5542    0.0000 Cl  0  0  0  0  0  0  0  0  0  0  0  0
    6.4250   -3.3542    0.0000 C   0  0  0  0  0  0  0  0  0  0  0  0
    5.0500   -3.3542    0.0000 C   0  0  0  0  0  0  0  0  0  0  0  0
    5.7375   -3.7500    0.0000 C   0  0  0  0  0  0  0  0  0  0  0  0
    4.3814   -2.1700    0.0000 C   0  0  0  0  0  0  0  0  0  0  0  0
    4.2979   -1.3943    0.0000 N   0  0  0  0  0  0  0  0  0  0  0  0
    3.5328   -1.2302    0.0000 N   0  0  0  0  0  0  0  0  0  0  0  0
    3.1403   -1.9072    0.0000 C   0  0  0  0  0  0  0  0  0  0  0  0
    3.6628   -2.4896    0.0000 O   0  0  0  0  0  0  0  0  0  0  0  0
    2.3618   -1.9875    0.0000 C   0  0  0  0  0  0  0  0  0  0  0  0
  2  1  1  0  0  0  0
  3  9  2  0  0  0  0
  3 11  1  0  0  0  0
  3  4  1  0  0  0  0
  4  2  2  0  0  0  0
  5  1  2  0  0  0  0
  6  1  2  0  0  0  0
  7  1  1  0  0  0  0
  8  2  1  0  0  0  0
  9 10  1  0  0  0  0
 10  8  2  0  0  0  0
 11 12  2  0  0  0  0
 12 13  1  0  0  0  0
 13 14  2  0  0  0  0
 14 15  1  0  0  0  0
 14 16  1  0  0  0  0
 15 11  1  0  0  0  0
M  END
>  <MOLFORMULA>
C9 H7 Cl N2 O3 S

>  <MOLWEIGHT>
2.586843000000000e+002

>  <code>
MO00158

>  <appearance>
solid

>  <purity>
Tech

>  <product_name>
3-(5-methyl-1,3,4-oxadiazol-2-yl)benzenesulfonyl chloride

>  <cansmi>
Cc1nnc(o1)c1cccc(c1)S(=O)(=O)Cl

>  <HBA2>
5

>  <HBD>
0

>  <logP>
3.0533

>  <TPSA>
81.44

>  <MW>
258.681

$$$$

 OpenBabel02131620232D

 16 16  0  0  0  0  0  0  0  0999 V2000
    6.8209   -2.1833    0.0000 S   0  0  0  0  0  0  0  0  0  0  0  0
    6.1000   -2.5958    0.0000 C   0  0  0  0  0  0  0  0  0  0  0  0
    5.3875   -2.1833    0.0000 C   0  0  0  0  0  0  0  0  0  0  0  0
    4.6750   -2.5958    0.0000 C   0  0  0  0  0  0  0  0  0  0  0  0
    3.9583   -2.1833    0.0000 C   0  0  0  0  0  0  0  0  0  0  0  0
    6.1000   -1.7708    0.0000 O   0  0  0  0  0  0  0  0  0  0  0  0
    7.5291   -1.7708    0.0000 O   0  0  0  0  0  0  0  0  0  0  0  0
    6.1000   -3.4292    0.0000 C   0  0  0  0  0  0  0  0  0  0  0  0
    7.5375   -2.6042    0.0000 Cl  0  0  0  0  0  0  0  0  0  0  0  0
    3.9583   -1.3583    0.0000 O   0  0  0  0  0  0  0  0  0  0  0  0
    4.6750   -3.4292    0.0000 C   0  0  0  0  0  0  0  0  0  0  0  0
    5.3875   -3.8417    0.0000 C   0  0  0  0  0  0  0  0  0  0  0  0
    3.2459   -2.5958    0.0000 O   0  0  0  0  0  0  0  0  0  0  0  0
    6.8125   -3.8459    0.0000 O   0  0  0  0  0  0  0  0  0  0  0  0
    2.5333   -2.1833    0.0000 C   0  0  0  0  0  0  0  0  0  0  0  0
    7.5291   -3.4375    0.0000 C   0  0  0  0  0  0  0  0  0  0  0  0
  2  1  1  0  0  0  0
  3  2  2  0  0  0  0
  4  3  1  0  0  0  0
  5  4  1  0  0  0  0
  6  1  2  0  0  0  0
  7  1  2  0  0  0  0
  8  2  1  0  0  0  0
  9  1  1  0  0  0  0
 10  5  2  0  0  0  0
 11 12  1  0  0  0  0
 11  4  2  0  0  0  0
 12  8  2  0  0  0  0
 13  5  1  0  0  0  0
 14  8  1  0  0  0  0
 15 13  1  0  0  0  0
 16 14  1  0  0  0  0
M  END
>  <MOLFORMULA>
C9 H9 Cl O5 S

>  <MOLWEIGHT>
2.646841000000000e+002

>  <code>
MO00348

>  <appearance>
solid

>  <purity>
95%

>  <product_name>
methyl 3-(chlorosulfonyl)-4-methoxybenzoate

>  <cansmi>
COC(=O)c1ccc(c(c1)S(=O)(=O)Cl)OC

>  <HBA2>
5

>  <HBD>
0

>  <logP>
2.4901

>  <TPSA>
78.05

>  <MW>
264.683

$$$$

 OpenBabel02131620232D

 14 14  0  0  0  0  0  0  0  0999 V2000
    6.2667  -13.6000    0.0000 S   0  0  0  0  0  0  0  0  0  0  0  0
    5.5583  -14.0125    0.0000 C   0  0  0  0  0  0  0  0  0  0  0  0
    5.5583  -14.8417    0.0000 C   0  0  0  0  0  0  0  0  0  0  0  0
    4.8417  -13.6000    0.0000 C   0  0  0  0  0  0  0  0  0  0  0  0
    4.8417  -15.2584    0.0000 C   0  0  0  0  0  0  0  0  0  0  0  0
    5.5583  -13.1875    0.0000 O   0  0  0  0  0  0  0  0  0  0  0  0
    6.9833  -13.1875    0.0000 O   0  0  0  0  0  0  0  0  0  0  0  0
    6.9875  -14.0167    0.0000 Cl  0  0  0  0  0  0  0  0  0  0  0  0
    4.1292  -14.8375    0.0000 C   0  0  0  0  0  0  0  0  0  0  0  0
    4.1292  -14.0125    0.0000 C   0  0  0  0  0  0  0  0  0  0  0  0
    6.2667  -15.2625    0.0000 O   0  0  0  0  0  0  0  0  0  0  0  0
    3.4125  -15.2500    0.0000 O   0  0  0  0  0  0  0  0  0  0  0  0
    6.9833  -14.8542    0.0000 C   0  0  0  0  0  0  0  0  0  0  0  0
    2.7042  -14.8375    0.0000 C   0  0  0  0  0  0  0  0  0  0  0  0
  2  1  1  0  0  0  0
  3  2  1  0  0  0  0
  4  2  2  0  0  0  0
  5  3  2  0  0  0  0
  5  9  1  0  0  0  0
  6  1  2  0  0  0  0
  7  1  2  0  0  0  0
  8  1  1  0  0  0  0
  9 10  2  0  0  0  0
 10  4  1  0  0  0  0
 11  3  1  0  0  0  0
 12  9  1  0  0  0  0
 13 11  1  0  0  0  0
 14 12  1  0  0  0  0
M  END
>  <MOLFORMULA>
C8 H9 Cl O4 S

>  <MOLWEIGHT>
2.366741000000000e+002

>  <code>
MO00349

>  <appearance>
solid

>  <purity>
97%

>  <product_name>
2,4-dimethoxybenzenesulfonyl chloride

>  <cansmi>
COc1cc(OC)ccc1S(=O)(=O)Cl

>  <HBA2>
4

>  <HBD>
0

>  <logP>
2.7121

>  <TPSA>
60.98

>  <MW>
236.673

$$$$

 OpenBabel02131620232D

 16 17  0  0  0  0  0  0  0  0999 V2000
   -1.6208    0.6125    0.0000 S   0  0  0  0  0  0  0  0  0  0  0  0
   -2.1375    0.3083    0.0000 C   0  0  0  0  0  0  0  0  0  0  0  0
   -3.6917   -0.5958    0.0000 O   0  0  0  0  0  0  0  0  0  0  0  0
   -3.1750   -0.2958    0.0000 C   0  0  0  0  0  0  0  0  0  0  0  0
   -3.1708    0.3042    0.0000 C   0  0  0  0  0  0  0  0  0  0  0  0
   -2.6583    0.6083    0.0000 C   0  0  0  0  0  0  0  0  0  0  0  0
   -1.1042    0.9125    0.0000 O   0  0  0  0  0  0  0  0  0  0  0  0
   -2.1417    0.9125    0.0000 O   0  0  0  0  0  0  0  0  0  0  0  0
   -4.2125   -0.2917    0.0000 C   0  0  0  0  0  0  0  0  0  0  0  0
   -1.1000    0.3167    0.0000 Cl  0  0  0  0  0  0  0  0  0  0  0  0
   -2.1375   -0.2958    0.0000 C   0  0  0  0  0  0  0  0  0  0  0  0
   -2.6583   -0.5958    0.0000 C   0  0  0  0  0  0  0  0  0  0  0  0
   -3.6875    0.6042    0.0000 C   0  0  0  0  0  0  0  0  0  0  0  0
   -4.2083    0.3083    0.0000 C   0  0  0  0  0  0  0  0  0  0  0  0
   -4.2417   -0.8917    0.0000 C   0  0  0  0  0  0  0  0  0  0  0  0
   -4.7083   -0.1000    0.0000 C   0  0  0  0  0  0  0  0  0  0  0  0
  2  1  1  0  0  0  0
  3  4  1  0  0  0  0
  4 12  1  0  0  0  0
  5  6  1  0  0  0  0
  5  4  2  0  0  0  0
  6  2  2  0  0  0  0
  7  1  2  0  0  0  0
  8  1  2  0  0  0  0
  9  3  1  0  0  0  0
 10  1  1  0  0  0  0
 11  2  1  0  0  0  0
 12 11  2  0  0  0  0
 13  5  1  0  0  0  0
 14 13  1  0  0  0  0
 14  9  1  0  0  0  0
 15  9  1  0  0  0  0
 16  9  1  0  0  0  0
M  END
>  <MOLFORMULA>
C11 H13 Cl O3 S

>  <MOLWEIGHT>
2.607397000000000e+002

>  <code>
MO00419

>  <appearance>
solid

>  <purity>
90%

>  <product_name>
2,2-dimethyl-6-chromanesulfonyl chloride

>  <cansmi>
CC1(C)CCc2c(O1)ccc(c2)S(=O)(=O)Cl

>  <HBA2>
3

>  <HBD>
0

>  <logP>
3.7985

>  <TPSA>
51.75

>  <MW>
260.737

$$$$

 OpenBabel02131620232D

 19 20  0  0  0  0  0  0  0  0999 V2000
    4.3417   -1.7666    0.0000 S   0  0  0  0  0  0  0  0  0  0  0  0
    7.2125   -3.4458    0.0000 S   0  0  0  0  0  0  0  0  0  0  0  0
    3.6209   -2.1833    0.0000 N   0  0  0  0  0  0  0  0  0  0  0  0
    5.0625   -2.1833    0.0000 C   0  0  0  0  0  0  0  0  0  0  0  0
    6.4958   -3.0167    0.0000 C   0  0  0  0  0  0  0  0  0  0  0  0
    5.0584   -1.3500    0.0000 O   0  0  0  0  0  0  0  0  0  0  0  0
    3.6209   -1.3500    0.0000 O   0  0  0  0  0  0  0  0  0  0  0  0
    6.4917   -3.8625    0.0000 O   0  0  0  0  0  0  0  0  0  0  0  0
    7.9292   -3.8625    0.0000 O   0  0  0  0  0  0  0  0  0  0  0  0
    7.9333   -3.0291    0.0000 Cl  0  0  0  0  0  0  0  0  0  0  0  0
    5.0625   -3.0167    0.0000 C   0  0  0  0  0  0  0  0  0  0  0  0
    5.7792   -1.7666    0.0000 C   0  0  0  0  0  0  0  0  0  0  0  0
    5.7792   -3.4333    0.0000 C   0  0  0  0  0  0  0  0  0  0  0  0
    6.4958   -2.1833    0.0000 C   0  0  0  0  0  0  0  0  0  0  0  0
    2.2000   -3.0167    0.0000 O   0  0  0  0  0  0  0  0  0  0  0  0
    3.6333   -3.0125    0.0000 C   0  0  0  0  0  0  0  0  0  0  0  0
    2.9084   -1.7666    0.0000 C   0  0  0  0  0  0  0  0  0  0  0  0
    2.1958   -2.1875    0.0000 C   0  0  0  0  0  0  0  0  0  0  0  0
    2.9125   -3.4250    0.0000 C   0  0  0  0  0  0  0  0  0  0  0  0
  2  5  1  0  0  0  0
  3  1  1  0  0  0  0
  4  1  1  0  0  0  0
  5 14  1  0  0  0  0
  5 13  2  0  0  0  0
  6  1  2  0  0  0  0
  7  1  2  0  0  0  0
  8  2  2  0  0  0  0
  9  2  2  0  0  0  0
 10  2  1  0  0  0  0
 11  4  2  0  0  0  0
 12  4  1  0  0  0  0
 13 11  1  0  0  0  0
 14 12  2  0  0  0  0
 15 18  1  0  0  0  0
 16  3  1  0  0  0  0
 17  3  1  0  0  0  0
 18 17  1  0  0  0  0
 19 16  1  0  0  0  0
 19 15  1  0  0  0  0
M  END
>  <MOLFORMULA>
C10 H12 Cl N O5 S2

>  <MOLWEIGHT>
3.257918000000000e+002

>  <code>
MO00516

>  <appearance>
solid

>  <purity>
TECH

>  <product_name>
4-(morpholine-4-sulfonyl)-benzenesulfonyl chloride

>  <cansmi>
O=S(=O)(c1ccc(cc1)S(=O)(=O)Cl)N1CCOCC1

>  <HBA2>
6

>  <HBD>
0

>  <logP>
2.7345

>  <TPSA>
97.51

>  <MW>
325.789

$$$$

 OpenBabel02131620232D

 18 19  0  0  0  0  0  0  0  0999 V2000
    4.3542   -1.8000    0.0000 S   0  0  0  0  0  0  0  0  0  0  0  0
    7.1083   -3.4083    0.0000 S   0  0  0  0  0  0  0  0  0  0  0  0
    3.6584   -2.1958    0.0000 N   0  0  0  0  0  0  0  0  0  0  0  0
    5.0416   -2.1958    0.0000 C   0  0  0  0  0  0  0  0  0  0  0  0
    6.4208   -3.0000    0.0000 C   0  0  0  0  0  0  0  0  0  0  0  0
    5.0375   -1.4000    0.0000 O   0  0  0  0  0  0  0  0  0  0  0  0
    3.6584   -1.4000    0.0000 O   0  0  0  0  0  0  0  0  0  0  0  0
    6.4167   -3.8083    0.0000 O   0  0  0  0  0  0  0  0  0  0  0  0
    7.7959   -3.8083    0.0000 O   0  0  0  0  0  0  0  0  0  0  0  0
    7.8000   -3.0125    0.0000 Cl  0  0  0  0  0  0  0  0  0  0  0  0
    5.0416   -3.0000    0.0000 C   0  0  0  0  0  0  0  0  0  0  0  0
    5.7292   -1.8000    0.0000 C   0  0  0  0  0  0  0  0  0  0  0  0
    5.7292   -3.4000    0.0000 C   0  0  0  0  0  0  0  0  0  0  0  0
    6.4208   -2.1958    0.0000 C   0  0  0  0  0  0  0  0  0  0  0  0
    2.9274   -1.8696    0.0000 C   0  0  0  0  0  0  0  0  0  0  0  0
    2.3880   -2.4611    0.0000 C   0  0  0  0  0  0  0  0  0  0  0  0
    2.7838   -3.1569    0.0000 C   0  0  0  0  0  0  0  0  0  0  0  0
    3.5679   -2.9954    0.0000 C   0  0  0  0  0  0  0  0  0  0  0  0
  2  5  1  0  0  0  0
  3 15  1  0  0  0  0
  3  1  1  0  0  0  0
  4  1  1  0  0  0  0
  5 14  1  0  0  0  0
  5 13  2  0  0  0  0
  6  1  2  0  0  0  0
  7  1  2  0  0  0  0
  8  2  2  0  0  0  0
  9  2  2  0  0  0  0
 10  2  1  0  0  0  0
 11  4  2  0  0  0  0
 12  4  1  0  0  0  0
 13 11  1  0  0  0  0
 14 12  2  0  0  0  0
 15 16  1  0  0  0  0
 16 17  1  0  0  0  0
 17 18  1  0  0  0  0
 18  3  1  0  0  0  0
M  END
>  <MOLFORMULA>
C10 H12 Cl N O4 S2

>  <MOLWEIGHT>
3.097928000000000e+002

>  <code>
MO00517

>  <appearance>
solid

>  <purity>
TECH

>  <product_name>
4-(pyrrolidine-1-sulfonyl)-benzenesulfonyl chloride

>  <cansmi>
O=S(=O)(c1ccc(cc1)S(=O)(=O)Cl)N1CCCC1

>  <HBA2>
5

>  <HBD>
0

>  <logP>
3.4981

>  <TPSA>
88.28

>  <MW>
309.79

$$$$

 OpenBabel02131620232D

 16 17  0  0  0  0  0  0  0  0999 V2000
    5.7470   -0.9083    0.0000 O   0  0  0  0  0  0  0  0  0  0  0  0
    6.4333   -1.3041    0.0000 S   0  0  0  0  0  0  0  0  0  0  0  0
    7.1196   -0.9083    0.0000 O   0  0  0  0  0  0  0  0  0  0  0  0
    5.7472   -1.7000    0.0000 C   0  0  0  0  0  0  0  0  0  0  0  0
    5.7484   -2.4982    0.0000 C   0  0  0  0  0  0  0  0  0  0  0  0
    5.0628   -2.8943    0.0000 C   0  0  0  0  0  0  0  0  0  0  0  0
    5.0646   -1.3038    0.0000 C   0  0  0  0  0  0  0  0  0  0  0  0
    7.1199   -1.7049    0.0000 Cl  0  0  0  0  0  0  0  0  0  0  0  0
    4.3872   -2.4895    0.0000 C   0  0  0  0  0  0  0  0  0  0  0  0
    4.3869   -1.6993    0.0000 C   0  0  0  0  0  0  0  0  0  0  0  0
    3.6353   -1.4553    0.0000 C   0  0  0  0  0  0  0  0  0  0  0  0
    3.1709   -2.0948    0.0000 C   0  0  0  0  0  0  0  0  0  0  0  0
    3.6357   -2.7339    0.0000 N   0  0  0  0  0  0  0  0  0  0  0  0
    3.3810   -3.5186    0.0000 C   0  0  0  0  0  0  0  0  0  0  0  0
    2.5740   -3.6903    0.0000 O   0  0  0  0  0  0  0  0  0  0  0  0
    3.9332   -4.1315    0.0000 C   0  0  0  0  0  0  0  0  0  0  0  0
  1  2  2  0  0  0  0
  2  8  1  0  0  0  0
  2  3  2  0  0  0  0
  4  2  1  0  0  0  0
  4  5  2  0  0  0  0
  5  6  1  0  0  0  0
  6  9  2  0  0  0  0
  7  4  1  0  0  0  0
  9 10  1  0  0  0  0
 10 11  1  0  0  0  0
 10  7  2  0  0  0  0
 11 12  1  0  0  0  0
 12 13  1  0  0  0  0
 13  9  1  0  0  0  0
 13 14  1  0  0  0  0
 14 15  2  0  0  0  0
 14 16  1  0  0  0  0
M  END
>  <MOLFORMULA>
C10 H10 Cl N O3 S

>  <MOLWEIGHT>
2.597120000000000e+002

>  <code>
MO00610

>  <appearance>
Solid

>  <purity>
97%

>  <product_name>
1-acetyl-5-indolinesulfonyl chloride

>  <cansmi>
CC(=O)N1CCc2c1ccc(c2)S(=O)(=O)Cl

>  <HBA2>
4

>  <HBD>
0

>  <logP>
2.6689

>  <TPSA>
62.83

>  <MW>
259.709

$$$$

 OpenBabel02131620232D

 14 14  0  0  0  0  0  0  0  0999 V2000
   -1.7542   -1.0041    0.0000 S   0  0  0  0  0  0  0  0  0  0  0  0
   -1.0849   -0.5217    0.0000 C   0  0  0  0  0  0  0  0  0  0  0  0
   -1.3417    0.2666    0.0000 C   0  0  0  0  0  0  0  0  0  0  0  0
   -2.1667    0.2666    0.0000 C   0  0  0  0  0  0  0  0  0  0  0  0
   -2.4235   -0.5217    0.0000 C   0  0  0  0  0  0  0  0  0  0  0  0
   -3.2077   -0.7778    0.0000 C   0  0  0  0  0  0  0  0  0  0  0  0
   -3.8216   -0.2266    0.0000 O   0  0  0  0  0  0  0  0  0  0  0  0
   -3.3780   -1.5850    0.0000 O   0  0  0  0  0  0  0  0  0  0  0  0
   -4.6059   -0.4828    0.0000 C   0  0  0  0  0  0  0  0  0  0  0  0
   -0.8570    0.9343    0.0000 C   0  0  0  0  0  0  0  0  0  0  0  0
   -0.3006   -0.7778    0.0000 S   0  0  0  0  0  0  0  0  0  0  0  0
    0.3133   -0.2266    0.0000 Cl  0  0  0  0  0  0  0  0  0  0  0  0
   -0.7208   -1.4875    0.0000 O   0  0  0  0  0  0  0  0  0  0  0  0
    0.4083   -1.1875    0.0000 O   0  0  0  0  0  0  0  0  0  0  0  0
  1  2  1  0  0  0  0
  2  3  2  0  0  0  0
  2 11  1  0  0  0  0
  3  4  1  0  0  0  0
  3 10  1  0  0  0  0
  4  5  2  0  0  0  0
  5  1  1  0  0  0  0
  5  6  1  0  0  0  0
  6  7  1  0  0  0  0
  6  8  2  0  0  0  0
  7  9  1  0  0  0  0
 11 12  1  0  0  0  0
 11 13  2  0  0  0  0
 11 14  2  0  0  0  0
M  END
>  <MOLFORMULA>
C7 H7 Cl O4 S2

>  <MOLWEIGHT>
2.547133000000000e+002

>  <code>
MO00640

>  <appearance>
solid

>  <purity>
97%

>  <product_name>
methyl 5-(chlorosulfonyl)-4-methyl-2-thiophenecarboxylate

>  <cansmi>
COC(=O)c1cc(c(s1)S(=O)(=O)Cl)C

>  <HBA2>
5

>  <HBD>
0

>  <logP>
2.8514

>  <TPSA>
97.06

>  <MW>
254.711

$$$$

 OpenBabel02131620232D

 13 13  0  0  0  0  0  0  0  0999 V2000
    3.5750  -14.2792    0.0000 S   0  0  0  0  0  0  0  0  0  0  0  0
    3.0542  -13.9792    0.0000 C   0  0  0  0  0  0  0  0  0  0  0  0
    3.0542  -13.3750    0.0000 C   0  0  0  0  0  0  0  0  0  0  0  0
    4.0875  -12.7667    0.0000 N   0  0  0  0  0  0  0  0  0  0  0  0
    3.5667  -13.0708    0.0000 C   0  0  0  0  0  0  0  0  0  0  0  0
    3.0542  -14.5792    0.0000 O   0  0  0  0  0  0  0  0  0  0  0  0
    4.0917  -14.5792    0.0000 O   0  0  0  0  0  0  0  0  0  0  0  0
    2.5333  -14.2792    0.0000 C   0  0  0  0  0  0  0  0  0  0  0  0
    4.0958  -13.9750    0.0000 Cl  0  0  0  0  0  0  0  0  0  0  0  0
    2.5333  -13.0750    0.0000 C   0  0  0  0  0  0  0  0  0  0  0  0
    2.0167  -13.9792    0.0000 C   0  0  0  0  0  0  0  0  0  0  0  0
    2.0167  -13.3750    0.0000 C   0  0  0  0  0  0  0  0  0  0  0  0
    1.4958  -14.2792    0.0000 C   0  0  0  0  0  0  0  0  0  0  0  0
  2  1  1  0  0  0  0
  3  2  1  0  0  0  0
  4  5  3  0  0  0  0
  5  3  1  0  0  0  0
  6  1  2  0  0  0  0
  7  1  2  0  0  0  0
  8  2  2  0  0  0  0
  9  1  1  0  0  0  0
 10  3  2  0  0  0  0
 10 12  1  0  0  0  0
 11  8  1  0  0  0  0
 12 11  2  0  0  0  0
 13 11  1  0  0  0  0
M  END
>  <MOLFORMULA>
C8 H6 Cl N O2 S

>  <MOLWEIGHT>
2.156594000000000e+002

>  <code>
MO00753

>  <appearance>
solid

>  <purity>
97%

>  <product_name>
2-cyano-5-methylbenzenesulfonyl chloride

>  <cansmi>
N#Cc1ccc(cc1S(=O)(=O)Cl)C

>  <HBA2>
3

>  <HBD>
0

>  <logP>
2.87498

>  <TPSA>
66.31

>  <MW>
215.657

$$$$

 OpenBabel02131620232D

 13 13  0  0  0  0  0  0  0  0999 V2000
   -2.2458   -3.0167    0.0000 S   0  0  0  0  0  0  0  0  0  0  0  0
   -4.3208   -3.0292    0.0000 C   0  0  0  0  0  0  0  0  0  0  0  0
   -1.7292   -3.3167    0.0000 O   0  0  0  0  0  0  0  0  0  0  0  0
   -2.7667   -3.3167    0.0000 O   0  0  0  0  0  0  0  0  0  0  0  0
   -2.7667   -2.7250    0.0000 C   0  0  0  0  0  0  0  0  0  0  0  0
   -4.3208   -3.6333    0.0000 C   0  0  0  0  0  0  0  0  0  0  0  0
   -3.8042   -2.7292    0.0000 C   0  0  0  0  0  0  0  0  0  0  0  0
   -1.7292   -2.7208    0.0000 Cl  0  0  0  0  0  0  0  0  0  0  0  0
   -3.2833   -3.0292    0.0000 C   0  0  0  0  0  0  0  0  0  0  0  0
   -3.8042   -3.9333    0.0000 C   0  0  0  0  0  0  0  0  0  0  0  0
   -4.8417   -2.7333    0.0000 Cl  0  0  0  0  0  0  0  0  0  0  0  0
   -3.2833   -3.6333    0.0000 C   0  0  0  0  0  0  0  0  0  0  0  0
   -4.8417   -3.9333    0.0000 Cl  0  0  0  0  0  0  0  0  0  0  0  0
  2  7  1  0  0  0  0
  2  6  2  0  0  0  0
  3  1  2  0  0  0  0
  4  1  2  0  0  0  0
  5  1  1  0  0  0  0
  6 10  1  0  0  0  0
  7  9  2  0  0  0  0
  8  1  1  0  0  0  0
  9  5  1  0  0  0  0
 10 12  2  0  0  0  0
 11  2  1  0  0  0  0
 12  9  1  0  0  0  0
 13  6  1  0  0  0  0
M  END
>  <MOLFORMULA>
C7 H5 Cl3 O2 S

>  <MOLWEIGHT>
2.595395000000000e+002

>  <code>
MO00820

>  <appearance>
solid

>  <purity>
90%

>  <product_name>
(3,4-dichlorophenyl)methanesulfonyl chloride

>  <cansmi>
Clc1ccc(cc1Cl)CS(=O)(=O)Cl

>  <HBA2>
2

>  <HBD>
0

>  <logP>
4.1428

>  <TPSA>
42.52

>  <MW>
259.537

$$$$

 OpenBabel02131620232D

 20 21  0  0  0  0  0  0  0  0999 V2000
    0.4625    0.1958    0.0000 S   0  0  0  0  0  0  0  0  0  0  0  0
    1.1318    0.6783    0.0000 C   0  0  0  0  0  0  0  0  0  0  0  0
    0.8750    1.4666    0.0000 C   0  0  0  0  0  0  0  0  0  0  0  0
    0.0500    1.4666    0.0000 N   0  0  0  0  0  0  0  0  0  0  0  0
   -0.2068    0.6783    0.0000 C   0  0  0  0  0  0  0  0  0  0  0  0
   -0.9910    0.4222    0.0000 C   0  0  0  0  0  0  0  0  0  0  0  0
   -1.6042    0.9716    0.0000 C   0  0  0  0  0  0  0  0  0  0  0  0
   -2.3878    0.7161    0.0000 C   0  0  0  0  0  0  0  0  0  0  0  0
   -2.5588   -0.0919    0.0000 C   0  0  0  0  0  0  0  0  0  0  0  0
   -1.9399   -0.6439    0.0000 C   0  0  0  0  0  0  0  0  0  0  0  0
   -1.1587   -0.3854    0.0000 C   0  0  0  0  0  0  0  0  0  0  0  0
   -3.3427   -0.3490    0.0000 C   0  0  0  0  0  0  0  0  0  0  0  0
   -3.9573    0.2013    0.0000 F   0  0  0  0  0  0  0  0  0  0  0  0
   -3.5119   -1.1565    0.0000 F   0  0  0  0  0  0  0  0  0  0  0  0
   -3.3882    0.4747    0.0000 F   0  0  0  0  0  0  0  0  0  0  0  0
    1.3597    2.1342    0.0000 C   0  0  0  0  0  0  0  0  0  0  0  0
    1.9160    0.4222    0.0000 S   0  0  0  0  0  0  0  0  0  0  0  0
    2.5300    0.9733    0.0000 Cl  0  0  0  0  0  0  0  0  0  0  0  0
    1.3250   -0.1583    0.0000 O   0  0  0  0  0  0  0  0  0  0  0  0
    2.6250    0.0125    0.0000 O   0  0  0  0  0  0  0  0  0  0  0  0
  1  2  1  0  0  0  0
  2  3  2  0  0  0  0
  2 17  1  0  0  0  0
  3  4  1  0  0  0  0
  3 16  1  0  0  0  0
  4  5  2  0  0  0  0
  5  1  1  0  0  0  0
  5  6  1  0  0  0  0
  6  7  2  0  0  0  0
  7  8  1  0  0  0  0
  8  9  2  0  0  0  0
  9 10  1  0  0  0  0
  9 12  1  0  0  0  0
 10 11  2  0  0  0  0
 11  6  1  0  0  0  0
 12 13  1  0  0  0  0
 12 14  1  0  0  0  0
 12 15  1  0  0  0  0
 17 18  1  0  0  0  0
 17 19  2  0  0  0  0
 17 20  2  0  0  0  0
M  END
>  <MOLFORMULA>
C11 H7 Cl F3 N O2 S2

>  <MOLWEIGHT>
3.417603000000000e+002

>  <code>
MO00860

>  <appearance>
solid

>  <purity>
97%

>  <product_name>
4-methyl-2-[4-(trifluoromethyl)phenyl]-1,3-thiazole-5-sulfonyl chloride

>  <cansmi>
Cc1nc(sc1S(=O)(=O)Cl)c1ccc(cc1)C(F)(F)F

>  <HBA2>
4

>  <HBD>
0

>  <logP>
5.1456

>  <TPSA>
83.65

>  <MW>
341.757

$$$$

 OpenBabel02131620232D

 14 14  0  0  0  0  0  0  0  0999 V2000
   -1.6375  -15.3167    0.0000 S   0  0  0  0  0  0  0  0  0  0  0  0
   -4.2333  -16.2292    0.0000 N   0  0  0  0  0  0  0  0  0  0  0  0
   -3.7125  -15.9292    0.0000 C   0  0  0  0  0  0  0  0  0  0  0  0
   -4.7542  -15.9292    0.0000 O   0  0  0  0  0  0  0  0  0  0  0  0
   -1.1167  -15.6167    0.0000 O   0  0  0  0  0  0  0  0  0  0  0  0
   -2.1583  -15.6167    0.0000 O   0  0  0  0  0  0  0  0  0  0  0  0
   -4.2333  -16.8292    0.0000 O   0  0  0  0  0  0  0  0  0  0  0  0
   -2.1583  -15.0208    0.0000 C   0  0  0  0  0  0  0  0  0  0  0  0
   -1.1208  -15.0167    0.0000 Cl  0  0  0  0  0  0  0  0  0  0  0  0
   -3.1958  -16.2292    0.0000 C   0  0  0  0  0  0  0  0  0  0  0  0
   -3.7125  -15.3250    0.0000 C   0  0  0  0  0  0  0  0  0  0  0  0
   -2.6750  -15.3250    0.0000 C   0  0  0  0  0  0  0  0  0  0  0  0
   -3.1958  -15.0250    0.0000 C   0  0  0  0  0  0  0  0  0  0  0  0
   -2.6750  -15.9292    0.0000 C   0  0  0  0  0  0  0  0  0  0  0  0
  2  3  1  0  0  0  0
  3 10  1  0  0  0  0
  4  2  2  0  0  0  0
  5  1  2  0  0  0  0
  6  1  2  0  0  0  0
  7  2  2  0  0  0  0
  8  1  1  0  0  0  0
  9  1  1  0  0  0  0
 10 14  2  0  0  0  0
 11 13  1  0  0  0  0
 11  3  2  0  0  0  0
 12  8  1  0  0  0  0
 13 12  2  0  0  0  0
 14 12  1  0  0  0  0
M  END
>  <MOLFORMULA>
C7 H6 Cl N O4 S

>  <MOLWEIGHT>
2.356464000000000e+002

>  <code>
MO00918

>  <appearance>
solid

>  <purity>
90%

>  <product_name>
(4-nitrophenyl)methanesulfonyl chloride

>  <cansmi>
O=N(=O)c1ccc(cc1)CS(=O)(=O)Cl

>  <HBA2>
2

>  <HBD>
0

>  <logP>
3.2674

>  <TPSA>
88.34

>  <MW>
235.645

$$$$

 OpenBabel02131620232D

 15 15  0  0  0  0  0  0  0  0999 V2000
   -1.2583   -2.6583    0.0000 S   0  0  0  0  0  0  0  0  0  0  0  0
   -1.7792   -2.9583    0.0000 O   0  0  0  0  0  0  0  0  0  0  0  0
   -0.7375   -2.9583    0.0000 O   0  0  0  0  0  0  0  0  0  0  0  0
   -3.8542   -3.5708    0.0000 C   0  0  0  0  0  0  0  0  0  0  0  0
   -3.3333   -3.2708    0.0000 C   0  0  0  0  0  0  0  0  0  0  0  0
   -1.7792   -2.3625    0.0000 C   0  0  0  0  0  0  0  0  0  0  0  0
   -0.7417   -2.3583    0.0000 Cl  0  0  0  0  0  0  0  0  0  0  0  0
   -2.8167   -3.5708    0.0000 C   0  0  0  0  0  0  0  0  0  0  0  0
   -3.3333   -2.6667    0.0000 C   0  0  0  0  0  0  0  0  0  0  0  0
   -2.2958   -2.6667    0.0000 C   0  0  0  0  0  0  0  0  0  0  0  0
   -2.8167   -2.3667    0.0000 C   0  0  0  0  0  0  0  0  0  0  0  0
   -2.2958   -3.2708    0.0000 C   0  0  0  0  0  0  0  0  0  0  0  0
   -4.3750   -3.7958    0.0000 C   0  0  0  0  0  0  0  0  0  0  0  0
   -4.3625   -3.2292    0.0000 C   0  0  0  0  0  0  0  0  0  0  0  0
   -3.5958   -4.1333    0.0000 C   0  0  0  0  0  0  0  0  0  0  0  0
  2  1  2  0  0  0  0
  3  1  2  0  0  0  0
  4  5  1  0  0  0  0
  5  8  1  0  0  0  0
  6  1  1  0  0  0  0
  7  1  1  0  0  0  0
  8 12  2  0  0  0  0
  9 11  1  0  0  0  0
  9  5  2  0  0  0  0
 10  6  1  0  0  0  0
 11 10  2  0  0  0  0
 12 10  1  0  0  0  0
 13  4  1  0  0  0  0
 14  4  1  0  0  0  0
 15  4  1  0  0  0  0
M  END
>  <MOLFORMULA>
C11 H15 Cl O2 S

>  <MOLWEIGHT>
2.467565000000000e+002

>  <code>
MO00924

>  <appearance>
liquid

>  <purity>
TECH

>  <product_name>
[4-(tert-butyl)phenyl]methanesulfonyl chloride

>  <cansmi>
CC(c1ccc(cc1)CS(=O)(=O)Cl)(C)C

>  <HBA2>
2

>  <HBD>
0

>  <logP>
4.1335

>  <TPSA>
42.52

>  <MW>
246.754

$$$$

 OpenBabel02131620232D

 12 12  0  0  0  0  0  0  0  0999 V2000
   -1.5875   -3.5542    0.0000 S   0  0  0  0  0  0  0  0  0  0  0  0
   -2.1083   -3.8542    0.0000 O   0  0  0  0  0  0  0  0  0  0  0  0
   -1.0667   -3.8542    0.0000 O   0  0  0  0  0  0  0  0  0  0  0  0
   -2.1083   -3.2583    0.0000 C   0  0  0  0  0  0  0  0  0  0  0  0
   -1.0708   -3.2542    0.0000 Cl  0  0  0  0  0  0  0  0  0  0  0  0
   -2.6250   -3.5625    0.0000 C   0  0  0  0  0  0  0  0  0  0  0  0
   -3.6625   -4.1667    0.0000 C   0  0  0  0  0  0  0  0  0  0  0  0
   -4.1833   -4.4667    0.0000 Cl  0  0  0  0  0  0  0  0  0  0  0  0
   -3.6625   -3.5625    0.0000 C   0  0  0  0  0  0  0  0  0  0  0  0
   -3.1458   -4.4667    0.0000 C   0  0  0  0  0  0  0  0  0  0  0  0
   -3.1458   -3.2625    0.0000 C   0  0  0  0  0  0  0  0  0  0  0  0
   -2.6250   -4.1667    0.0000 C   0  0  0  0  0  0  0  0  0  0  0  0
  2  1  2  0  0  0  0
  3  1  2  0  0  0  0
  4  1  1  0  0  0  0
  5  1  1  0  0  0  0
  6  4  1  0  0  0  0
  7 10  1  0  0  0  0
  8  7  1  0  0  0  0
  9 11  1  0  0  0  0
  9  7  2  0  0  0  0
 10 12  2  0  0  0  0
 11  6  2  0  0  0  0
 12  6  1  0  0  0  0
M  END
>  <MOLFORMULA>
C7 H6 Cl2 O2 S

>  <MOLWEIGHT>
2.250944000000000e+002

>  <code>
MO00927

>  <appearance>
solid

>  <purity>
90%

>  <product_name>
(4-chlorophenyl)methanesulfonyl chloride

>  <cansmi>
Clc1ccc(cc1)CS(=O)(=O)Cl

>  <HBA2>
2

>  <HBD>
0

>  <logP>
3.4894

>  <TPSA>
42.52

>  <MW>
225.092

$$$$

 OpenBabel02131620232D

 15 15  0  0  0  0  0  0  0  0999 V2000
    8.5792    1.0458    0.0000 S   0  0  0  0  0  0  0  0  0  0  0  0
    5.9875    1.3250    0.0000 C   0  0  0  0  0  0  0  0  0  0  0  0
    6.5042    1.0333    0.0000 C   0  0  0  0  0  0  0  0  0  0  0  0
    8.0583    0.7458    0.0000 O   0  0  0  0  0  0  0  0  0  0  0  0
    9.0958    0.7458    0.0000 O   0  0  0  0  0  0  0  0  0  0  0  0
    8.0583    1.3375    0.0000 C   0  0  0  0  0  0  0  0  0  0  0  0
    7.0208    1.3333    0.0000 C   0  0  0  0  0  0  0  0  0  0  0  0
    9.0958    1.3417    0.0000 Cl  0  0  0  0  0  0  0  0  0  0  0  0
    7.5417    1.0333    0.0000 C   0  0  0  0  0  0  0  0  0  0  0  0
    5.8875    1.9458    0.0000 F   0  0  0  0  0  0  0  0  0  0  0  0
    5.4000    1.1042    0.0000 F   0  0  0  0  0  0  0  0  0  0  0  0
    5.5125    1.6000    0.0000 F   0  0  0  0  0  0  0  0  0  0  0  0
    6.5042    0.4292    0.0000 C   0  0  0  0  0  0  0  0  0  0  0  0
    7.0208    0.1292    0.0000 C   0  0  0  0  0  0  0  0  0  0  0  0
    7.5417    0.4292    0.0000 C   0  0  0  0  0  0  0  0  0  0  0  0
  2  3  1  0  0  0  0
  3  7  1  0  0  0  0
  3 13  2  0  0  0  0
  4  1  2  0  0  0  0
  5  1  2  0  0  0  0
  6  1  1  0  0  0  0
  7  9  2  0  0  0  0
  8  1  1  0  0  0  0
  9  6  1  0  0  0  0
 10  2  1  0  0  0  0
 11  2  1  0  0  0  0
 12  2  1  0  0  0  0
 13 14  1  0  0  0  0
 14 15  2  0  0  0  0
 15  9  1  0  0  0  0
M  END
>  <MOLFORMULA>
C8 H6 Cl F3 O2 S

>  <MOLWEIGHT>
2.586464000000000e+002

>  <code>
MO00932

>  <appearance>
solid

>  <purity>
90%

>  <product_name>
[3-(trifluoromethyl)phenyl]methanesulfonyl chloride

>  <cansmi>
ClS(=O)(=O)Cc1cccc(c1)C(F)(F)F

>  <HBA2>
2

>  <HBD>
0

>  <logP>
3.8548

>  <TPSA>
42.52

>  <MW>
258.645

$$$$

 OpenBabel02131620232D

 12 12  0  0  0  0  0  0  0  0999 V2000
   -1.7625   -7.5500    0.0000 S   0  0  0  0  0  0  0  0  0  0  0  0
   -2.2833   -7.8500    0.0000 O   0  0  0  0  0  0  0  0  0  0  0  0
   -1.2417   -7.8500    0.0000 O   0  0  0  0  0  0  0  0  0  0  0  0
   -2.2833   -7.2542    0.0000 C   0  0  0  0  0  0  0  0  0  0  0  0
   -1.2458   -7.2500    0.0000 Cl  0  0  0  0  0  0  0  0  0  0  0  0
   -2.8000   -7.5583    0.0000 C   0  0  0  0  0  0  0  0  0  0  0  0
   -3.8375   -8.1625    0.0000 C   0  0  0  0  0  0  0  0  0  0  0  0
   -2.8000   -8.1625    0.0000 C   0  0  0  0  0  0  0  0  0  0  0  0
   -3.3208   -7.2583    0.0000 C   0  0  0  0  0  0  0  0  0  0  0  0
   -3.3208   -8.4625    0.0000 C   0  0  0  0  0  0  0  0  0  0  0  0
   -3.8375   -7.5625    0.0000 C   0  0  0  0  0  0  0  0  0  0  0  0
   -4.3583   -8.4625    0.0000 C   0  0  0  0  0  0  0  0  0  0  0  0
  2  1  2  0  0  0  0
  3  1  2  0  0  0  0
  4  1  1  0  0  0  0
  5  1  1  0  0  0  0
  6  4  1  0  0  0  0
  7 11  2  0  0  0  0
  7 10  1  0  0  0  0
  8  6  1  0  0  0  0
  9  6  2  0  0  0  0
 10  8  2  0  0  0  0
 11  9  1  0  0  0  0
 12  7  1  0  0  0  0
M  END
>  <MOLFORMULA>
C8 H9 Cl O2 S

>  <MOLWEIGHT>
2.046761000000000e+002

>  <code>
MO00937

>  <appearance>
solid

>  <purity>
TECH

>  <product_name>
(4-methylphenyl)methanesulfonyl chloride

>  <cansmi>
Cc1ccc(cc1)CS(=O)(=O)Cl

>  <HBA2>
2

>  <HBD>
0

>  <logP>
3.1444

>  <TPSA>
42.52

>  <MW>
204.674

$$$$

 OpenBabel02131620232D

 12 12  0  0  0  0  0  0  0  0999 V2000
    2.3971  -22.2083    0.0000 O   0  0  0  0  0  0  0  0  0  0  0  0
    2.9167  -21.9083    0.0000 S   0  0  0  0  0  0  0  0  0  0  0  0
    3.4363  -22.2083    0.0000 O   0  0  0  0  0  0  0  0  0  0  0  0
    0.8444  -21.9208    0.0000 C   0  0  0  0  0  0  0  0  0  0  0  0
    0.8432  -22.5232    0.0000 C   0  0  0  0  0  0  0  0  0  0  0  0
    1.3622  -22.8235    0.0000 C   0  0  0  0  0  0  0  0  0  0  0  0
    1.8828  -22.5227    0.0000 C   0  0  0  0  0  0  0  0  0  0  0  0
    1.8800  -21.9172    0.0000 C   0  0  0  0  0  0  0  0  0  0  0  0
    1.3604  -21.6205    0.0000 C   0  0  0  0  0  0  0  0  0  0  0  0
    0.3232  -22.8224    0.0000 Br  0  0  0  0  0  0  0  0  0  0  0  0
    2.3982  -21.6147    0.0000 C   0  0  0  0  0  0  0  0  0  0  0  0
    3.4374  -21.6097    0.0000 Cl  0  0  0  0  0  0  0  0  0  0  0  0
  1  2  2  0  0  0  0
  2  3  2  0  0  0  0
  2 12  1  0  0  0  0
  4  5  2  0  0  0  0
  5 10  1  0  0  0  0
  5  6  1  0  0  0  0
  6  7  2  0  0  0  0
  7  8  1  0  0  0  0
  8  9  2  0  0  0  0
  8 11  1  0  0  0  0
  9  4  1  0  0  0  0
 11  2  1  0  0  0  0
M  END
>  <MOLFORMULA>
C7 H6 Br Cl O2 S

>  <MOLWEIGHT>
2.695450000000000e+002

>  <code>
MO00946

>  <appearance>
Solid

>  <purity>
97%

>  <product_name>
(4-bromophenyl)methanesulfonyl chloride

>  <cansmi>
Brc1ccc(cc1)CS(=O)(=O)Cl

>  <HBA2>
2

>  <HBD>
0

>  <logP>
3.5985

>  <TPSA>
42.52

>  <MW>
269.543

$$$$

 OpenBabel02131620232D

 12 12  0  0  0  0  0  0  0  0999 V2000
    1.3625  -20.6917    0.0000 S   0  0  0  0  0  0  0  0  0  0  0  0
    0.8542  -20.9917    0.0000 C   0  0  0  0  0  0  0  0  0  0  0  0
    0.9208  -20.2208    0.0000 O   0  0  0  0  0  0  0  0  0  0  0  0
    1.8625  -20.2208    0.0000 O   0  0  0  0  0  0  0  0  0  0  0  0
    0.8542  -21.5833    0.0000 C   0  0  0  0  0  0  0  0  0  0  0  0
    0.3458  -20.6958    0.0000 C   0  0  0  0  0  0  0  0  0  0  0  0
    1.8708  -20.9833    0.0000 Cl  0  0  0  0  0  0  0  0  0  0  0  0
    0.3458  -21.8750    0.0000 C   0  0  0  0  0  0  0  0  0  0  0  0
   -0.1625  -20.9917    0.0000 C   0  0  0  0  0  0  0  0  0  0  0  0
   -0.1625  -21.5833    0.0000 C   0  0  0  0  0  0  0  0  0  0  0  0
    1.3750  -21.8833    0.0000 C   0  0  0  0  0  0  0  0  0  0  0  0
   -0.6833  -20.6958    0.0000 C   0  0  0  0  0  0  0  0  0  0  0  0
  2  1  1  0  0  0  0
  3  1  2  0  0  0  0
  4  1  2  0  0  0  0
  5  2  1  0  0  0  0
  6  2  2  0  0  0  0
  7  1  1  0  0  0  0
  8  5  2  0  0  0  0
  8 10  1  0  0  0  0
  9  6  1  0  0  0  0
 10  9  2  0  0  0  0
 11  5  1  0  0  0  0
 12  9  1  0  0  0  0
M  END
>  <MOLFORMULA>
C8 H9 Cl O2 S

>  <MOLWEIGHT>
2.046761000000000e+002

>  <code>
MO07001

>  <appearance>
solid

>  <purity>
97%

>  <product_name>
2,5-dimethylbenzenesulfonyl chloride

>  <cansmi>
Cc1ccc(c(c1)S(=O)(=O)Cl)C

>  <HBA2>
2

>  <HBD>
0

>  <logP>
3.3117

>  <TPSA>
42.52

>  <MW>
204.674

$$$$

 OpenBabel02131620232D

 15 15  0  0  0  0  0  0  0  0999 V2000
    6.4667  -20.9750    0.0000 S   0  0  0  0  0  0  0  0  0  0  0  0
    4.9083  -21.3125    0.0000 C   0  0  0  0  0  0  0  0  0  0  0  0
    4.3833  -21.0250    0.0000 C   0  0  0  0  0  0  0  0  0  0  0  0
    5.9542  -21.2833    0.0000 C   0  0  0  0  0  0  0  0  0  0  0  0
    5.4250  -20.9958    0.0000 C   0  0  0  0  0  0  0  0  0  0  0  0
    4.9250  -21.9083    0.0000 C   0  0  0  0  0  0  0  0  0  0  0  0
    6.9833  -20.6750    0.0000 O   0  0  0  0  0  0  0  0  0  0  0  0
    5.9458  -20.6750    0.0000 O   0  0  0  0  0  0  0  0  0  0  0  0
    6.9917  -21.2667    0.0000 Cl  0  0  0  0  0  0  0  0  0  0  0  0
    5.9667  -21.8833    0.0000 C   0  0  0  0  0  0  0  0  0  0  0  0
    3.9000  -20.7625    0.0000 F   0  0  0  0  0  0  0  0  0  0  0  0
    4.2667  -20.4083    0.0000 F   0  0  0  0  0  0  0  0  0  0  0  0
    3.8000  -21.2625    0.0000 F   0  0  0  0  0  0  0  0  0  0  0  0
    5.4500  -22.1958    0.0000 C   0  0  0  0  0  0  0  0  0  0  0  0
    4.4125  -22.2208    0.0000 Cl  0  0  0  0  0  0  0  0  0  0  0  0
  2  5  1  0  0  0  0
  2  6  2  0  0  0  0
  3  2  1  0  0  0  0
  4  1  1  0  0  0  0
  5  4  2  0  0  0  0
  6 14  1  0  0  0  0
  7  1  2  0  0  0  0
  8  1  2  0  0  0  0
  9  1  1  0  0  0  0
 10  4  1  0  0  0  0
 11  3  1  0  0  0  0
 12  3  1  0  0  0  0
 13  3  1  0  0  0  0
 14 10  2  0  0  0  0
 15  6  1  0  0  0  0
M  END
>  <MOLFORMULA>
C7 H3 Cl2 F3 O2 S

>  <MOLWEIGHT>
2.790647000000000e+002

>  <code>
MO07002

>  <appearance>
solid

>  <purity>
97%

>  <product_name>
4-chloro-3-(trifluoromethyl)benzenesulfonyl chloride

>  <cansmi>
Clc1ccc(cc1C(F)(F)F)S(=O)(=O)Cl

>  <HBA2>
2

>  <HBD>
0

>  <logP>
4.3671

>  <TPSA>
42.52

>  <MW>
279.064

$$$$

 OpenBabel02131620232D

 17 18  0  0  0  0  0  0  0  0999 V2000
    6.5467   -4.2616    0.0000 O   0  0  0  0  0  0  0  0  0  0  0  0
    7.2623   -3.8491    0.0000 S   0  0  0  0  0  0  0  0  0  0  0  0
    7.9777   -4.2616    0.0000 O   0  0  0  0  0  0  0  0  0  0  0  0
    2.9902   -2.1875    0.0000 C   0  0  0  0  0  0  0  0  0  0  0  0
    2.9891   -1.3560    0.0000 C   0  0  0  0  0  0  0  0  0  0  0  0
    3.7039   -0.9432    0.0000 C   0  0  0  0  0  0  0  0  0  0  0  0
    4.4204   -1.3565    0.0000 C   0  0  0  0  0  0  0  0  0  0  0  0
    4.4175   -2.1911    0.0000 C   0  0  0  0  0  0  0  0  0  0  0  0
    3.7021   -2.6003    0.0000 C   0  0  0  0  0  0  0  0  0  0  0  0
    2.2773   -0.9443    0.0000 Cl  0  0  0  0  0  0  0  0  0  0  0  0
    5.1273   -2.6061    0.0000 C   0  0  0  0  0  0  0  0  0  0  0  0
    5.8417   -2.1933    0.0000 C   0  0  0  0  0  0  0  0  0  0  0  0
    6.5553   -2.6077    0.0000 C   0  0  0  0  0  0  0  0  0  0  0  0
    6.5486   -3.4334    0.0000 C   0  0  0  0  0  0  0  0  0  0  0  0
    5.8281   -3.8433    0.0000 C   0  0  0  0  0  0  0  0  0  0  0  0
    5.1207   -3.4271    0.0000 C   0  0  0  0  0  0  0  0  0  0  0  0
    7.9795   -3.4439    0.0000 Cl  0  0  0  0  0  0  0  0  0  0  0  0
  1  2  2  0  0  0  0
  2  3  2  0  0  0  0
  2 17  1  0  0  0  0
  4  5  2  0  0  0  0
  5 10  1  0  0  0  0
  5  6  1  0  0  0  0
  6  7  2  0  0  0  0
  7  8  1  0  0  0  0
  8 11  1  0  0  0  0
  8  9  2  0  0  0  0
  9  4  1  0  0  0  0
 11 12  2  0  0  0  0
 12 13  1  0  0  0  0
 13 14  2  0  0  0  0
 14 15  1  0  0  0  0
 14  2  1  0  0  0  0
 15 16  2  0  0  0  0
 16 11  1  0  0  0  0
M  END
>  <MOLFORMULA>
C12 H8 Cl2 O2 S

>  <MOLWEIGHT>
2.871652000000000e+002

>  <code>
MO07005

>  <appearance>
Solid

>  <purity>
97%

>  <product_name>
4'-chloro[1,1'-biphenyl]-4-sulfonyl chloride

>  <cansmi>
Clc1ccc(cc1)c1ccc(cc1)S(=O)(=O)Cl

>  <HBA2>
2

>  <HBD>
0

>  <logP>
5.0153

>  <TPSA>
42.52

>  <MW>
287.162

$$$$

 OpenBabel02131620232D

 17 18  0  0  0  0  0  0  0  0999 V2000
    6.4260   -4.2616    0.0000 O   0  0  0  0  0  0  0  0  0  0  0  0
    7.1414   -3.8491    0.0000 S   0  0  0  0  0  0  0  0  0  0  0  0
    7.8527   -4.2616    0.0000 O   0  0  0  0  0  0  0  0  0  0  0  0
    2.8694   -2.1833    0.0000 C   0  0  0  0  0  0  0  0  0  0  0  0
    2.8682   -1.3560    0.0000 C   0  0  0  0  0  0  0  0  0  0  0  0
    3.5831   -0.9431    0.0000 C   0  0  0  0  0  0  0  0  0  0  0  0
    4.2995   -1.3564    0.0000 C   0  0  0  0  0  0  0  0  0  0  0  0
    4.2966   -2.1912    0.0000 C   0  0  0  0  0  0  0  0  0  0  0  0
    3.5813   -2.6003    0.0000 C   0  0  0  0  0  0  0  0  0  0  0  0
    2.1523   -0.9442    0.0000 F   0  0  0  0  0  0  0  0  0  0  0  0
    5.0065   -2.6061    0.0000 C   0  0  0  0  0  0  0  0  0  0  0  0
    5.7208   -2.1933    0.0000 C   0  0  0  0  0  0  0  0  0  0  0  0
    6.4303   -2.6078    0.0000 C   0  0  0  0  0  0  0  0  0  0  0  0
    6.4278   -3.4334    0.0000 C   0  0  0  0  0  0  0  0  0  0  0  0
    5.7072   -3.8433    0.0000 C   0  0  0  0  0  0  0  0  0  0  0  0
    4.9957   -3.4271    0.0000 C   0  0  0  0  0  0  0  0  0  0  0  0
    7.8586   -3.4440    0.0000 Cl  0  0  0  0  0  0  0  0  0  0  0  0
  1  2  2  0  0  0  0
  2  3  2  0  0  0  0
  2 17  1  0  0  0  0
  4  5  2  0  0  0  0
  5 10  1  0  0  0  0
  5  6  1  0  0  0  0
  6  7  2  0  0  0  0
  7  8  1  0  0  0  0
  8 11  1  0  0  0  0
  8  9  2  0  0  0  0
  9  4  1  0  0  0  0
 11 12  2  0  0  0  0
 12 13  1  0  0  0  0
 13 14  2  0  0  0  0
 14 15  1  0  0  0  0
 14  2  1  0  0  0  0
 15 16  2  0  0  0  0
 16 11  1  0  0  0  0
M  END
>  <MOLFORMULA>
C12 H8 Cl F O2 S

>  <MOLWEIGHT>
2.707102000000000e+002

>  <code>
MO07015

>  <appearance>
Solid

>  <purity>
97%

>  <product_name>
4'-fluoro[1,1'-biphenyl]-4-sulfonyl chloride

>  <cansmi>
Fc1ccc(cc1)c1ccc(cc1)S(=O)(=O)Cl

>  <HBA2>
2

>  <HBD>
0

>  <logP>
4.501

>  <TPSA>
42.52

>  <MW>
270.707

$$$$

 OpenBabel02131620232D

 18 19  0  0  0  0  0  0  0  0999 V2000
    6.7843   -4.2616    0.0000 O   0  0  0  0  0  0  0  0  0  0  0  0
    7.4997   -3.8491    0.0000 S   0  0  0  0  0  0  0  0  0  0  0  0
    8.2152   -4.2616    0.0000 O   0  0  0  0  0  0  0  0  0  0  0  0
    3.2278   -2.1833    0.0000 C   0  0  0  0  0  0  0  0  0  0  0  0
    3.2266   -1.3560    0.0000 C   0  0  0  0  0  0  0  0  0  0  0  0
    3.9414   -0.9431    0.0000 C   0  0  0  0  0  0  0  0  0  0  0  0
    4.6578   -1.3564    0.0000 C   0  0  0  0  0  0  0  0  0  0  0  0
    4.6549   -2.1912    0.0000 C   0  0  0  0  0  0  0  0  0  0  0  0
    3.9396   -2.6003    0.0000 C   0  0  0  0  0  0  0  0  0  0  0  0
    2.5107   -0.9442    0.0000 O   0  0  0  0  0  0  0  0  0  0  0  0
    5.3648   -2.6061    0.0000 C   0  0  0  0  0  0  0  0  0  0  0  0
    6.0791   -2.1933    0.0000 C   0  0  0  0  0  0  0  0  0  0  0  0
    6.7928   -2.6078    0.0000 C   0  0  0  0  0  0  0  0  0  0  0  0
    6.7861   -3.4334    0.0000 C   0  0  0  0  0  0  0  0  0  0  0  0
    6.0656   -3.8433    0.0000 C   0  0  0  0  0  0  0  0  0  0  0  0
    5.3582   -3.4271    0.0000 C   0  0  0  0  0  0  0  0  0  0  0  0
    8.2170   -3.4440    0.0000 Cl  0  0  0  0  0  0  0  0  0  0  0  0
    1.7999   -1.3575    0.0000 C   0  0  0  0  0  0  0  0  0  0  0  0
  1  2  2  0  0  0  0
  2  3  2  0  0  0  0
  2 17  1  0  0  0  0
  4  5  2  0  0  0  0
  5 10  1  0  0  0  0
  5  6  1  0  0  0  0
  6  7  2  0  0  0  0
  7  8  1  0  0  0  0
  8 11  1  0  0  0  0
  8  9  2  0  0  0  0
  9  4  1  0  0  0  0
 10 18  1  0  0  0  0
 11 12  2  0  0  0  0
 12 13  1  0  0  0  0
 13 14  2  0  0  0  0
 14 15  1  0  0  0  0
 14  2  1  0  0  0  0
 15 16  2  0  0  0  0
 16 11  1  0  0  0  0
M  END
>  <MOLFORMULA>
C13 H11 Cl O3 S

>  <MOLWEIGHT>
2.827459000000000e+002

>  <code>
MO07016

>  <appearance>
Solid

>  <purity>
97%

>  <product_name>
4'-methoxy[1,1'-biphenyl]-4-sulfonyl chloride

>  <cansmi>
COc1ccc(cc1)c1ccc(cc1)S(=O)(=O)Cl

>  <HBA2>
3

>  <HBD>
0

>  <logP>
4.3705

>  <TPSA>
51.75

>  <MW>
282.743

$$$$

 OpenBabel02131620232D

 17 18  0  0  0  0  0  0  0  0999 V2000
    2.1486   -1.7583    0.0000 C   0  0  0  0  0  0  0  0  0  0  0  0
    2.8646   -1.3456    0.0000 C   0  0  0  0  0  0  0  0  0  0  0  0
    2.1474   -2.5899    0.0000 C   0  0  0  0  0  0  0  0  0  0  0  0
    2.8664   -3.0111    0.0000 C   0  0  0  0  0  0  0  0  0  0  0  0
    3.5842   -1.7547    0.0000 C   0  0  0  0  0  0  0  0  0  0  0  0
    4.3024   -1.3356    0.0000 O   0  0  0  0  0  0  0  0  0  0  0  0
    5.0234   -1.7456    0.0000 C   0  0  0  0  0  0  0  0  0  0  0  0
    5.0224   -2.5727    0.0000 C   0  0  0  0  0  0  0  0  0  0  0  0
    5.7470   -2.9868    0.0000 C   0  0  0  0  0  0  0  0  0  0  0  0
    6.4659   -2.5677    0.0000 C   0  0  0  0  0  0  0  0  0  0  0  0
    6.4569   -1.7312    0.0000 C   0  0  0  0  0  0  0  0  0  0  0  0
    5.7361   -1.3240    0.0000 C   0  0  0  0  0  0  0  0  0  0  0  0
    3.5835   -2.6031    0.0000 C   0  0  0  0  0  0  0  0  0  0  0  0
    7.1780   -2.9792    0.0000 S   0  0  0  0  0  0  0  0  0  0  0  0
    7.8926   -2.5669    0.0000 Cl  0  0  0  0  0  0  0  0  0  0  0  0
    6.5875   -3.5625    0.0000 O   0  0  0  0  0  0  0  0  0  0  0  0
    7.8875   -3.3917    0.0000 O   0  0  0  0  0  0  0  0  0  0  0  0
  1  3  1  0  0  0  0
  2  1  2  0  0  0  0
  2  5  1  0  0  0  0
  3  4  2  0  0  0  0
  4 13  1  0  0  0  0
  5  6  1  0  0  0  0
  6  7  1  0  0  0  0
  7  8  2  0  0  0  0
  8  9  1  0  0  0  0
  9 10  2  0  0  0  0
 10 11  1  0  0  0  0
 10 14  1  0  0  0  0
 11 12  2  0  0  0  0
 12  7  1  0  0  0  0
 13  5  2  0  0  0  0
 14 15  1  0  0  0  0
 14 16  2  0  0  0  0
 14 17  2  0  0  0  0
M  END
>  <MOLFORMULA>
C12 H9 Cl O3 S

>  <MOLWEIGHT>
2.687191000000000e+002

>  <code>
MO07030

>  <appearance>
Solid

>  <purity>
97%

>  <product_name>
4-phenoxybenzenesulfonyl chloride

>  <cansmi>
ClS(=O)(=O)c1ccc(cc1)Oc1ccccc1

>  <HBA2>
3

>  <HBD>
0

>  <logP>
4.4872

>  <TPSA>
51.75

>  <MW>
268.716

$$$$

 OpenBabel02131620232D

 17 18  0  0  0  0  0  0  0  0999 V2000
    6.4259   -4.1949    0.0000 O   0  0  0  0  0  0  0  0  0  0  0  0
    7.1414   -3.7824    0.0000 S   0  0  0  0  0  0  0  0  0  0  0  0
    7.8526   -4.1949    0.0000 O   0  0  0  0  0  0  0  0  0  0  0  0
    2.8694   -2.1167    0.0000 C   0  0  0  0  0  0  0  0  0  0  0  0
    2.8682   -1.2894    0.0000 C   0  0  0  0  0  0  0  0  0  0  0  0
    3.5830   -0.8765    0.0000 C   0  0  0  0  0  0  0  0  0  0  0  0
    4.2995   -1.2898    0.0000 C   0  0  0  0  0  0  0  0  0  0  0  0
    4.2967   -2.1204    0.0000 C   0  0  0  0  0  0  0  0  0  0  0  0
    3.5812   -2.5295    0.0000 C   0  0  0  0  0  0  0  0  0  0  0  0
    2.1524   -0.8776    0.0000 C   0  0  0  0  0  0  0  0  0  0  0  0
    5.0065   -2.5353    0.0000 C   0  0  0  0  0  0  0  0  0  0  0  0
    5.7209   -2.1225    0.0000 C   0  0  0  0  0  0  0  0  0  0  0  0
    6.4303   -2.5370    0.0000 C   0  0  0  0  0  0  0  0  0  0  0  0
    6.4277   -3.3667    0.0000 C   0  0  0  0  0  0  0  0  0  0  0  0
    5.7072   -3.7725    0.0000 C   0  0  0  0  0  0  0  0  0  0  0  0
    4.9958   -3.3563    0.0000 C   0  0  0  0  0  0  0  0  0  0  0  0
    7.8587   -3.3731    0.0000 Cl  0  0  0  0  0  0  0  0  0  0  0  0
  1  2  2  0  0  0  0
  2  3  2  0  0  0  0
  2 17  1  0  0  0  0
  4  5  2  0  0  0  0
  5 10  1  0  0  0  0
  5  6  1  0  0  0  0
  6  7  2  0  0  0  0
  7  8  1  0  0  0  0
  8 11  1  0  0  0  0
  8  9  2  0  0  0  0
  9  4  1  0  0  0  0
 11 12  2  0  0  0  0
 12 13  1  0  0  0  0
 13 14  2  0  0  0  0
 14 15  1  0  0  0  0
 14  2  1  0  0  0  0
 15 16  2  0  0  0  0
 16 11  1  0  0  0  0
M  END
>  <MOLFORMULA>
C13 H11 Cl O2 S

>  <MOLWEIGHT>
2.667469000000000e+002

>  <code>
MO07034

>  <appearance>
Solid

>  <purity>
97%

>  <product_name>
4'-methyl[1,1'-biphenyl]-4-sulfonyl chloride

>  <cansmi>
Cc1ccc(cc1)c1ccc(cc1)S(=O)(=O)Cl

>  <HBA2>
2

>  <HBD>
0

>  <logP>
4.6703

>  <TPSA>
42.52

>  <MW>
266.743

$$$$

 OpenBabel02131620232D

 14 15  0  0  0  0  0  0  0  0999 V2000
   -1.2750   -1.2124    0.0000 S   0  0  0  0  0  0  0  0  0  0  0  0
   -0.6057   -0.7300    0.0000 C   0  0  0  0  0  0  0  0  0  0  0  0
   -0.8625    0.0583    0.0000 C   0  0  0  0  0  0  0  0  0  0  0  0
   -1.9443   -0.7300    0.0000 C   0  0  0  0  0  0  0  0  0  0  0  0
   -1.6843    0.0597    0.0000 C   0  0  0  0  0  0  0  0  0  0  0  0
   -2.2377    0.6776    0.0000 C   0  0  0  0  0  0  0  0  0  0  0  0
   -3.0511    0.5071    0.0000 C   0  0  0  0  0  0  0  0  0  0  0  0
   -3.3083   -0.2868    0.0000 C   0  0  0  0  0  0  0  0  0  0  0  0
   -2.7532   -0.9014    0.0000 C   0  0  0  0  0  0  0  0  0  0  0  0
   -3.6026    1.1207    0.0000 C   0  0  0  0  0  0  0  0  0  0  0  0
    0.1786   -0.9861    0.0000 S   0  0  0  0  0  0  0  0  0  0  0  0
    0.7925   -0.4350    0.0000 Cl  0  0  0  0  0  0  0  0  0  0  0  0
   -0.2417   -1.6958    0.0000 O   0  0  0  0  0  0  0  0  0  0  0  0
    0.8875   -1.3958    0.0000 O   0  0  0  0  0  0  0  0  0  0  0  0
  1  2  1  0  0  0  0
  2  3  2  0  0  0  0
  2 11  1  0  0  0  0
  3  5  1  0  0  0  0
  4  1  1  0  0  0  0
  4  5  2  0  0  0  0
  5  6  1  0  0  0  0
  6  7  2  0  0  0  0
  7  8  1  0  0  0  0
  7 10  1  0  0  0  0
  8  9  2  0  0  0  0
  9  4  1  0  0  0  0
 11 12  1  0  0  0  0
 11 13  2  0  0  0  0
 11 14  2  0  0  0  0
M  END
>  <MOLFORMULA>
C9 H7 Cl O2 S2

>  <MOLWEIGHT>
2.467373000000000e+002

>  <code>
MO07074

>  <appearance>
Solid

>  <purity>
97%

>  <product_name>
5-methyl-1-benzothiophene-2-sulfonyl chloride

>  <cansmi>
Cc1ccc2c(c1)cc(s2)S(=O)(=O)Cl

>  <HBA2>
3

>  <HBD>
0

>  <logP>
4.218

>  <TPSA>
70.76

>  <MW>
246.734

$$$$

 OpenBabel02131620232D

 14 15  0  0  0  0  0  0  0  0999 V2000
   -0.4735   -1.2833    0.0000 C   0  0  0  0  0  0  0  0  0  0  0  0
   -0.4724   -2.1106    0.0000 C   0  0  0  0  0  0  0  0  0  0  0  0
   -1.1872   -2.5277    0.0000 C   0  0  0  0  0  0  0  0  0  0  0  0
   -1.1854   -0.8704    0.0000 C   0  0  0  0  0  0  0  0  0  0  0  0
    0.2424   -2.5268    0.0000 Br  0  0  0  0  0  0  0  0  0  0  0  0
   -1.1849   -0.0413    0.0000 S   0  0  0  0  0  0  0  0  0  0  0  0
   -1.9051   -2.1060    0.0000 C   0  0  0  0  0  0  0  0  0  0  0  0
   -1.9044   -1.2839    0.0000 C   0  0  0  0  0  0  0  0  0  0  0  0
   -2.6882   -1.0294    0.0000 O   0  0  0  0  0  0  0  0  0  0  0  0
   -3.1685   -1.6938    0.0000 C   0  0  0  0  0  0  0  0  0  0  0  0
   -2.6894   -2.3590    0.0000 C   0  0  0  0  0  0  0  0  0  0  0  0
   -0.4702    0.3708    0.0000 Cl  0  0  0  0  0  0  0  0  0  0  0  0
   -0.9750    0.7625    0.0000 O   0  0  0  0  0  0  0  0  0  0  0  0
   -2.0125   -0.0375    0.0000 O   0  0  0  0  0  0  0  0  0  0  0  0
  1  2  2  0  0  0  0
  2  3  1  0  0  0  0
  2  5  1  0  0  0  0
  3  7  2  0  0  0  0
  4  1  1  0  0  0  0
  4  6  1  0  0  0  0
  6 12  1  0  0  0  0
  6 13  2  0  0  0  0
  6 14  2  0  0  0  0
  7  8  1  0  0  0  0
  8  4  2  0  0  0  0
  8  9  1  0  0  0  0
  9 10  1  0  0  0  0
 10 11  1  0  0  0  0
 11  7  1  0  0  0  0
M  END
>  <MOLFORMULA>
C8 H6 Br Cl O3 S

>  <MOLWEIGHT>
2.975554000000000e+002

>  <code>
MO07141

>  <appearance>
solid

>  <purity>
97%

>  <product_name>
5-Bromo-2,3-dihydrobenzo[b]furan-7-sulfonyl chloride

>  <cansmi>
Brc1cc2CCOc2c(c1)S(=O)(=O)Cl

>  <HBA2>
3

>  <HBD>
0

>  <logP>
3.3923

>  <TPSA>
51.75

>  <MW>
297.553

$$$$

 OpenBabel02131620232D

 14 15  0  0  0  0  0  0  0  0999 V2000
   -0.3208   -0.8500    0.0000 O   0  0  0  0  0  0  0  0  0  0  0  0
    0.3485   -0.3675    0.0000 C   0  0  0  0  0  0  0  0  0  0  0  0
    0.0917    0.4208    0.0000 C   0  0  0  0  0  0  0  0  0  0  0  0
   -0.7333    0.4208    0.0000 C   0  0  0  0  0  0  0  0  0  0  0  0
   -0.9901   -0.3675    0.0000 C   0  0  0  0  0  0  0  0  0  0  0  0
   -1.7744   -0.6236    0.0000 C   0  0  0  0  0  0  0  0  0  0  0  0
   -2.4447   -0.1362    0.0000 O   0  0  0  0  0  0  0  0  0  0  0  0
   -3.1115   -0.6221    0.0000 C   0  0  0  0  0  0  0  0  0  0  0  0
   -2.8553   -1.4064    0.0000 C   0  0  0  0  0  0  0  0  0  0  0  0
   -2.0304   -1.4050    0.0000 O   0  0  0  0  0  0  0  0  0  0  0  0
    1.1327   -0.6236    0.0000 S   0  0  0  0  0  0  0  0  0  0  0  0
    1.7466   -0.0725    0.0000 Cl  0  0  0  0  0  0  0  0  0  0  0  0
    0.5417   -1.2042    0.0000 O   0  0  0  0  0  0  0  0  0  0  0  0
    1.8417   -1.0333    0.0000 O   0  0  0  0  0  0  0  0  0  0  0  0
  1  2  1  0  0  0  0
  2  3  2  0  0  0  0
  2 11  1  0  0  0  0
  3  4  1  0  0  0  0
  4  5  2  0  0  0  0
  5  1  1  0  0  0  0
  5  6  1  0  0  0  0
  6  7  1  0  0  0  0
  7  8  1  0  0  0  0
  8  9  1  0  0  0  0
  9 10  1  0  0  0  0
 10  6  1  0  0  0  0
 11 12  1  0  0  0  0
 11 13  2  0  0  0  0
 11 14  2  0  0  0  0
M  END
>  <MOLFORMULA>
C7 H7 Cl O5 S

>  <MOLWEIGHT>
2.386463000000000e+002

>  <code>
MO07624

>  <appearance>
Liquid

>  <purity>
95%

>  <product_name>
5-(1,3-dioxolan-2-yl)furan-2-sulfonyl chloride

>  <cansmi>
ClS(=O)(=O)c1ccc(o1)C1OCCO1

>  <HBA2>
5

>  <HBD>
0

>  <logP>
2.3333

>  <TPSA>
74.12

>  <MW>
238.645

$$$$

 OpenBabel02131620232D

 13 13  0  0  0  0  0  0  0  0999 V2000
    5.4608  -14.6412    0.0000 C   0  0  0  0  0  0  0  0  0  0  0  0
    4.7544  -15.0755    0.0000 C   0  0  0  0  0  0  0  0  0  0  0  0
    4.0176  -14.6726    0.0000 C   0  0  0  0  0  0  0  0  0  0  0  0
    5.4302  -13.8040    0.0000 C   0  0  0  0  0  0  0  0  0  0  0  0
    4.0015  -13.8510    0.0000 C   0  0  0  0  0  0  0  0  0  0  0  0
    4.7079  -13.4167    0.0000 C   0  0  0  0  0  0  0  0  0  0  0  0
    3.3251  -15.1374    0.0000 Cl  0  0  0  0  0  0  0  0  0  0  0  0
    4.6774  -12.5795    0.0000 F   0  0  0  0  0  0  0  0  0  0  0  0
    4.7612  -15.8980    0.0000 C   0  0  0  0  0  0  0  0  0  0  0  0
    6.1385  -13.3649    0.0000 S   0  0  0  0  0  0  0  0  0  0  0  0
    6.8656  -13.7548    0.0000 Cl  0  0  0  0  0  0  0  0  0  0  0  0
    5.5500  -12.7834    0.0000 O   0  0  0  0  0  0  0  0  0  0  0  0
    6.8500  -12.9542    0.0000 O   0  0  0  0  0  0  0  0  0  0  0  0
  2  1  1  0  0  0  0
  3  2  2  0  0  0  0
  4 10  1  0  0  0  0
  4  1  2  0  0  0  0
  5  3  1  0  0  0  0
  5  6  2  0  0  0  0
  6  4  1  0  0  0  0
  7  3  1  0  0  0  0
  8  6  1  0  0  0  0
  9  2  1  0  0  0  0
 10 11  1  0  0  0  0
 10 12  2  0  0  0  0
 10 13  2  0  0  0  0
M  END
>  <MOLFORMULA>
C7 H5 Cl2 F O2 S

>  <MOLWEIGHT>
2.430845000000000e+002

>  <code>
MO07737

>  <appearance>
Liquid

>  <purity>
90%

>  <product_name>
4-chloro-2-fluoro-5-methylbenzenesulfonyl chloride

>  <cansmi>
Fc1cc(Cl)c(cc1S(=O)(=O)Cl)C

>  <HBA2>
2

>  <HBD>
0

>  <logP>
3.7958

>  <TPSA>
42.52

>  <MW>
243.083

$$$$

 OpenBabel02131620232D

 12 12  0  0  0  0  0  0  0  0999 V2000
    3.3750   -0.1167    0.0000 S   0  0  0  0  0  0  0  0  0  0  0  0
    1.2875   -0.1292    0.0000 C   0  0  0  0  0  0  0  0  0  0  0  0
    3.8917   -0.4208    0.0000 O   0  0  0  0  0  0  0  0  0  0  0  0
    2.8458   -0.4208    0.0000 O   0  0  0  0  0  0  0  0  0  0  0  0
    2.8458    0.1750    0.0000 C   0  0  0  0  0  0  0  0  0  0  0  0
    1.2875   -0.7333    0.0000 C   0  0  0  0  0  0  0  0  0  0  0  0
    1.8042    0.1708    0.0000 C   0  0  0  0  0  0  0  0  0  0  0  0
    3.8917    0.1833    0.0000 Cl  0  0  0  0  0  0  0  0  0  0  0  0
    2.3292   -0.1292    0.0000 C   0  0  0  0  0  0  0  0  0  0  0  0
    1.8042   -1.0375    0.0000 C   0  0  0  0  0  0  0  0  0  0  0  0
    2.3292   -0.7333    0.0000 C   0  0  0  0  0  0  0  0  0  0  0  0
    1.8011   -1.6355    0.0000 C   0  0  0  0  0  0  0  0  0  0  0  0
  2  7  1  0  0  0  0
  3  1  2  0  0  0  0
  4  1  2  0  0  0  0
  5  1  1  0  0  0  0
  6 10  1  0  0  0  0
  6  2  2  0  0  0  0
  7  9  2  0  0  0  0
  8  1  1  0  0  0  0
  9  5  1  0  0  0  0
 10 11  2  0  0  0  0
 10 12  1  0  0  0  0
 11  9  1  0  0  0  0
M  END
>  <MOLFORMULA>
C8 H9 Cl O2 S

>  <MOLWEIGHT>
2.046761000000000e+002

>  <code>
MO07767

>  <appearance>
Solid

>  <purity>
97%

>  <product_name>
(3-methylphenyl)methanesulfonyl chloride

>  <cansmi>
Cc1cccc(c1)CS(=O)(=O)Cl

>  <HBA2>
2

>  <HBD>
0

>  <logP>
3.1444

>  <TPSA>
42.52

>  <MW>
204.674

$$$$

 OpenBabel02131620232D

 15 15  0  0  0  0  0  0  0  0999 V2000
    0.6750    0.4042    0.0000 S   0  0  0  0  0  0  0  0  0  0  0  0
   -1.4125    0.3917    0.0000 C   0  0  0  0  0  0  0  0  0  0  0  0
    1.1917    0.1042    0.0000 O   0  0  0  0  0  0  0  0  0  0  0  0
    0.1458    0.1042    0.0000 O   0  0  0  0  0  0  0  0  0  0  0  0
    0.1458    0.7000    0.0000 C   0  0  0  0  0  0  0  0  0  0  0  0
   -1.4125   -0.2125    0.0000 C   0  0  0  0  0  0  0  0  0  0  0  0
   -0.9000    0.6958    0.0000 C   0  0  0  0  0  0  0  0  0  0  0  0
    1.1917    0.7083    0.0000 Cl  0  0  0  0  0  0  0  0  0  0  0  0
   -0.3708    0.3917    0.0000 C   0  0  0  0  0  0  0  0  0  0  0  0
   -0.9000   -0.5125    0.0000 C   0  0  0  0  0  0  0  0  0  0  0  0
   -0.3708   -0.2125    0.0000 C   0  0  0  0  0  0  0  0  0  0  0  0
   -1.9318   -0.5079    0.0000 C   0  0  0  0  0  0  0  0  0  0  0  0
   -2.4494   -0.2094    0.0000 F   0  0  0  0  0  0  0  0  0  0  0  0
   -1.9336   -1.1059    0.0000 F   0  0  0  0  0  0  0  0  0  0  0  0
   -2.0880    0.0704    0.0000 F   0  0  0  0  0  0  0  0  0  0  0  0
  2  7  1  0  0  0  0
  3  1  2  0  0  0  0
  4  1  2  0  0  0  0
  5  1  1  0  0  0  0
  6 10  1  0  0  0  0
  6  2  2  0  0  0  0
  6 12  1  0  0  0  0
  7  9  2  0  0  0  0
  8  1  1  0  0  0  0
  9  5  1  0  0  0  0
 10 11  2  0  0  0  0
 11  9  1  0  0  0  0
 12 13  1  0  0  0  0
 12 14  1  0  0  0  0
 12 15  1  0  0  0  0
M  END
>  <MOLFORMULA>
C8 H6 Cl F3 O2 S

>  <MOLWEIGHT>
2.586464000000000e+002

>  <code>
MO07768

>  <appearance>
Solid

>  <purity>
95%

>  <product_name>
[4-(trifluoromethyl)phenyl]methanesulfonyl chloride

>  <cansmi>
FC(c1ccc(cc1)CS(=O)(=O)Cl)(F)F

>  <HBA2>
2

>  <HBD>
0

>  <logP>
3.8548

>  <TPSA>
42.52

>  <MW>
258.645

$$$$

 OpenBabel02131620232D

 12 12  0  0  0  0  0  0  0  0999 V2000
    2.8417   -0.8167    0.0000 S   0  0  0  0  0  0  0  0  0  0  0  0
    2.3208   -0.5083    0.0000 C   0  0  0  0  0  0  0  0  0  0  0  0
    3.1708   -0.2958    0.0000 O   0  0  0  0  0  0  0  0  0  0  0  0
    2.5375   -1.3375    0.0000 O   0  0  0  0  0  0  0  0  0  0  0  0
    1.8000   -0.8167    0.0000 C   0  0  0  0  0  0  0  0  0  0  0  0
    3.3792   -1.1250    0.0000 Cl  0  0  0  0  0  0  0  0  0  0  0  0
    1.8000   -1.4042    0.0000 C   0  0  0  0  0  0  0  0  0  0  0  0
    1.2792   -0.5083    0.0000 C   0  0  0  0  0  0  0  0  0  0  0  0
    2.3208   -1.7083    0.0000 F   0  0  0  0  0  0  0  0  0  0  0  0
    1.2792   -1.7083    0.0000 C   0  0  0  0  0  0  0  0  0  0  0  0
    0.7667   -0.8167    0.0000 C   0  0  0  0  0  0  0  0  0  0  0  0
    0.7667   -1.4042    0.0000 C   0  0  0  0  0  0  0  0  0  0  0  0
  2  1  1  0  0  0  0
  3  1  2  0  0  0  0
  4  1  2  0  0  0  0
  5  2  1  0  0  0  0
  6  1  1  0  0  0  0
  7  5  2  0  0  0  0
  8  5  1  0  0  0  0
  9  7  1  0  0  0  0
 10  7  1  0  0  0  0
 10 12  2  0  0  0  0
 11  8  2  0  0  0  0
 12 11  1  0  0  0  0
M  END
>  <MOLFORMULA>
C7 H6 Cl F O2 S

>  <MOLWEIGHT>
2.086394000000000e+002

>  <code>
MO07770

>  <appearance>
Solid

>  <purity>
95%

>  <product_name>
(2-fluorophenyl)methanesulfonyl chloride

>  <cansmi>
Fc1ccccc1CS(=O)(=O)Cl

>  <HBA2>
2

>  <HBD>
0

>  <logP>
2.9751

>  <TPSA>
42.52

>  <MW>
208.638

$$$$

 OpenBabel02131620232D

 14 15  0  0  0  0  0  0  0  0999 V2000
    5.3292   -2.8374    0.0000 S   0  0  0  0  0  0  0  0  0  0  0  0
    5.9984   -2.3550    0.0000 C   0  0  0  0  0  0  0  0  0  0  0  0
    5.7417   -1.5667    0.0000 C   0  0  0  0  0  0  0  0  0  0  0  0
    4.9167   -1.5667    0.0000 C   0  0  0  0  0  0  0  0  0  0  0  0
    4.6599   -2.3550    0.0000 C   0  0  0  0  0  0  0  0  0  0  0  0
    3.8785   -2.6067    0.0000 C   0  0  0  0  0  0  0  0  0  0  0  0
    3.2098   -2.1206    0.0000 O   0  0  0  0  0  0  0  0  0  0  0  0
    2.5410   -2.6064    0.0000 C   0  0  0  0  0  0  0  0  0  0  0  0
    2.7970   -3.3938    0.0000 C   0  0  0  0  0  0  0  0  0  0  0  0
    3.6220   -3.3939    0.0000 O   0  0  0  0  0  0  0  0  0  0  0  0
    6.7806   -2.6075    0.0000 S   0  0  0  0  0  0  0  0  0  0  0  0
    7.3927   -2.0544    0.0000 Cl  0  0  0  0  0  0  0  0  0  0  0  0
    6.3625   -3.3167    0.0000 O   0  0  0  0  0  0  0  0  0  0  0  0
    7.4917   -3.0167    0.0000 O   0  0  0  0  0  0  0  0  0  0  0  0
  1  2  1  0  0  0  0
  2  3  2  0  0  0  0
  2 11  1  0  0  0  0
  3  4  1  0  0  0  0
  4  5  2  0  0  0  0
  5  6  1  0  0  0  0
  5  1  1  0  0  0  0
  6  7  1  0  0  0  0
  7  8  1  0  0  0  0
  8  9  1  0  0  0  0
  9 10  1  0  0  0  0
 10  6  1  0  0  0  0
 11 12  1  0  0  0  0
 11 13  2  0  0  0  0
 11 14  2  0  0  0  0
M  END
>  <MOLFORMULA>
C7 H7 Cl O4 S2

>  <MOLWEIGHT>
2.547133000000000e+002

>  <code>
MO07791

>  <appearance>
Liquid

>  <purity>
Tech

>  <product_name>
5-(1,3-dioxolan-2-yl)thiophene-2-sulfonyl chloride

>  <cansmi>
ClS(=O)(=O)c1ccc(s1)C1OCCO1

>  <HBA2>
5

>  <HBD>
0

>  <logP>
2.8018

>  <TPSA>
89.22

>  <MW>
254.711

$$$$

 OpenBabel02131620232D

 12 12  0  0  0  0  0  0  0  0999 V2000
    7.8458    6.2208    0.0000 S   0  0  0  0  0  0  0  0  0  0  0  0
    7.1333    6.6417    0.0000 C   0  0  0  0  0  0  0  0  0  0  0  0
    8.2917    6.9292    0.0000 O   0  0  0  0  0  0  0  0  0  0  0  0
    7.4250    5.5083    0.0000 O   0  0  0  0  0  0  0  0  0  0  0  0
    6.4208    6.2208    0.0000 C   0  0  0  0  0  0  0  0  0  0  0  0
    8.5750    5.8000    0.0000 Cl  0  0  0  0  0  0  0  0  0  0  0  0
    6.4208    5.4208    0.0000 C   0  0  0  0  0  0  0  0  0  0  0  0
    5.7083    6.6417    0.0000 C   0  0  0  0  0  0  0  0  0  0  0  0
    7.1333    5.0000    0.0000 C   0  0  0  0  0  0  0  0  0  0  0  0
    5.7083    5.0000    0.0000 C   0  0  0  0  0  0  0  0  0  0  0  0
    5.0000    6.2208    0.0000 C   0  0  0  0  0  0  0  0  0  0  0  0
    5.0000    5.4208    0.0000 C   0  0  0  0  0  0  0  0  0  0  0  0
  2  1  1  0  0  0  0
  3  1  2  0  0  0  0
  4  1  2  0  0  0  0
  5  2  1  0  0  0  0
  6  1  1  0  0  0  0
  7  5  2  0  0  0  0
  8  5  1  0  0  0  0
  9  7  1  0  0  0  0
 10  7  1  0  0  0  0
 11  8  2  0  0  0  0
 12 11  1  0  0  0  0
 12 10  2  0  0  0  0
M  END
>  <MOLFORMULA>
C8 H9 Cl O2 S

>  <MOLWEIGHT>
2.046761000000000e+002

>  <code>
MO07798

>  <appearance>
Solid

>  <purity>
97%

>  <product_name>
(2-methylphenyl)methanesulfonyl chloride

>  <cansmi>
Cc1ccccc1CS(=O)(=O)Cl

>  <HBA2>
2

>  <HBD>
0

>  <logP>
3.1444

>  <TPSA>
42.52

>  <MW>
204.674

$$$$

 OpenBabel02131620232D

 12 12  0  0  0  0  0  0  0  0999 V2000
    0.1569   -1.5833    0.0000 C   0  0  0  0  0  0  0  0  0  0  0  0
    0.1557   -2.1815    0.0000 C   0  0  0  0  0  0  0  0  0  0  0  0
    0.6789   -2.4819    0.0000 C   0  0  0  0  0  0  0  0  0  0  0  0
    1.1995   -2.1810    0.0000 C   0  0  0  0  0  0  0  0  0  0  0  0
    1.1966   -1.5797    0.0000 C   0  0  0  0  0  0  0  0  0  0  0  0
    0.6771   -1.2830    0.0000 C   0  0  0  0  0  0  0  0  0  0  0  0
    1.7137   -1.2770    0.0000 C   0  0  0  0  0  0  0  0  0  0  0  0
    2.2339   -1.5743    0.0000 S   0  0  0  0  0  0  0  0  0  0  0  0
   -0.3632   -2.4809    0.0000 F   0  0  0  0  0  0  0  0  0  0  0  0
    2.7552   -1.2716    0.0000 Cl  0  0  0  0  0  0  0  0  0  0  0  0
    1.9333   -2.0875    0.0000 O   0  0  0  0  0  0  0  0  0  0  0  0
    2.6583   -1.9958    0.0000 O   0  0  0  0  0  0  0  0  0  0  0  0
  1  2  2  0  0  0  0
  2  9  1  0  0  0  0
  2  3  1  0  0  0  0
  3  4  2  0  0  0  0
  4  5  1  0  0  0  0
  5  7  1  0  0  0  0
  5  6  2  0  0  0  0
  6  1  1  0  0  0  0
  7  8  1  0  0  0  0
  8 10  1  0  0  0  0
  8 11  2  0  0  0  0
  8 12  2  0  0  0  0
M  END
>  <MOLFORMULA>
C7 H6 Cl F O2 S

>  <MOLWEIGHT>
2.086394000000000e+002

>  <code>
MO07801

>  <appearance>
Solid

>  <purity>
95%

>  <product_name>
(4-fluorophenyl)methanesulfonyl chloride

>  <cansmi>
Fc1ccc(cc1)CS(=O)(=O)Cl

>  <HBA2>
2

>  <HBD>
0

>  <logP>
2.9751

>  <TPSA>
42.52

>  <MW>
208.638

$$$$

 OpenBabel02131620232D

 14 15  0  0  0  0  0  0  0  0999 V2000
    6.1523   -0.9676    0.0000 C   0  0  0  0  0  0  0  0  0  0  0  0
    5.4249   -0.5759    0.0000 C   0  0  0  0  0  0  0  0  0  0  0  0
    4.8262   -1.1410    0.0000 O   0  0  0  0  0  0  0  0  0  0  0  0
    5.1810   -1.8880    0.0000 C   0  0  0  0  0  0  0  0  0  0  0  0
    6.0026   -1.7788    0.0000 O   0  0  0  0  0  0  0  0  0  0  0  0
    4.6688   -2.5730    0.0000 C   0  0  0  0  0  0  0  0  0  0  0  0
    3.8486   -2.5678    0.0000 C   0  0  0  0  0  0  0  0  0  0  0  0
    4.9346   -3.3532    0.0000 C   0  0  0  0  0  0  0  0  0  0  0  0
    3.6008   -3.3626    0.0000 C   0  0  0  0  0  0  0  0  0  0  0  0
    4.2611   -3.8439    0.0000 S   0  0  0  0  0  0  0  0  0  0  0  0
    5.7139   -3.6057    0.0000 S   0  0  0  0  0  0  0  0  0  0  0  0
    6.3265   -3.0532    0.0000 Cl  0  0  0  0  0  0  0  0  0  0  0  0
    5.1250   -4.1875    0.0000 O   0  0  0  0  0  0  0  0  0  0  0  0
    6.4250   -4.0167    0.0000 O   0  0  0  0  0  0  0  0  0  0  0  0
  1  2  1  0  0  0  0
  2  3  1  0  0  0  0
  3  4  1  0  0  0  0
  4  5  1  0  0  0  0
  5  1  1  0  0  0  0
  6  7  1  0  0  0  0
  6  8  2  0  0  0  0
  6  4  1  0  0  0  0
  7  9  2  0  0  0  0
  8 10  1  0  0  0  0
  8 11  1  0  0  0  0
  9 10  1  0  0  0  0
 11 12  1  0  0  0  0
 11 13  2  0  0  0  0
 11 14  2  0  0  0  0
M  END
>  <MOLFORMULA>
C7 H7 Cl O4 S2

>  <MOLWEIGHT>
2.547133000000000e+002

>  <code>
MO07810

>  <appearance>
Solid

>  <purity>
97%

>  <product_name>
3-(1,3-dioxolan-2-yl)thiophene-2-sulfonyl chloride

>  <cansmi>
ClS(=O)(=O)c1sccc1C1OCCO1

>  <HBA2>
5

>  <HBD>
0

>  <logP>
2.8018

>  <TPSA>
89.22

>  <MW>
254.711

$$$$

 OpenBabel02131620232D

 12 12  0  0  0  0  0  0  0  0999 V2000
   -3.1598  -10.3791    0.0000 C   0  0  0  0  0  0  0  0  0  0  0  0
   -3.1610  -11.2065    0.0000 C   0  0  0  0  0  0  0  0  0  0  0  0
   -2.4378  -11.6236    0.0000 C   0  0  0  0  0  0  0  0  0  0  0  0
   -1.7172  -11.2060    0.0000 C   0  0  0  0  0  0  0  0  0  0  0  0
   -1.7201  -10.3755    0.0000 C   0  0  0  0  0  0  0  0  0  0  0  0
   -2.4396   -9.9622    0.0000 C   0  0  0  0  0  0  0  0  0  0  0  0
   -1.0030   -9.9562    0.0000 C   0  0  0  0  0  0  0  0  0  0  0  0
   -0.2828  -10.3660    0.0000 S   0  0  0  0  0  0  0  0  0  0  0  0
    0.4385   -9.9508    0.0000 Cl  0  0  0  0  0  0  0  0  0  0  0  0
   -0.7000  -11.0792    0.0000 O   0  0  0  0  0  0  0  0  0  0  0  0
    0.3041  -10.9500    0.0000 O   0  0  0  0  0  0  0  0  0  0  0  0
   -2.4409   -9.1372    0.0000 Cl  0  0  0  0  0  0  0  0  0  0  0  0
  1  2  2  0  0  0  0
  2  3  1  0  0  0  0
  3  4  2  0  0  0  0
  4  5  1  0  0  0  0
  5  7  1  0  0  0  0
  5  6  2  0  0  0  0
  6  1  1  0  0  0  0
  6 12  1  0  0  0  0
  7  8  1  0  0  0  0
  8  9  1  0  0  0  0
  8 10  2  0  0  0  0
  8 11  2  0  0  0  0
M  END
>  <MOLFORMULA>
C7 H6 Cl2 O2 S

>  <MOLWEIGHT>
2.250944000000000e+002

>  <code>
MO07829

>  <appearance>
Solid

>  <purity>
97%

>  <product_name>
(2-chlorophenyl)methanesulfonyl chloride

>  <cansmi>
Clc1ccccc1CS(=O)(=O)Cl

>  <HBA2>
2

>  <HBD>
0

>  <logP>
3.4894

>  <TPSA>
42.52

>  <MW>
225.092

$$$$

 OpenBabel02131620232D

 12 12  0  0  0  0  0  0  0  0999 V2000
    1.6069   -1.4833    0.0000 C   0  0  0  0  0  0  0  0  0  0  0  0
    1.6057   -2.0857    0.0000 C   0  0  0  0  0  0  0  0  0  0  0  0
    2.1289   -2.3860    0.0000 C   0  0  0  0  0  0  0  0  0  0  0  0
    2.6495   -2.0852    0.0000 C   0  0  0  0  0  0  0  0  0  0  0  0
    2.6466   -1.4797    0.0000 C   0  0  0  0  0  0  0  0  0  0  0  0
    2.1271   -1.1830    0.0000 C   0  0  0  0  0  0  0  0  0  0  0  0
    2.1287   -2.9860    0.0000 F   0  0  0  0  0  0  0  0  0  0  0  0
    3.1637   -1.1770    0.0000 C   0  0  0  0  0  0  0  0  0  0  0  0
    3.6839   -1.4743    0.0000 S   0  0  0  0  0  0  0  0  0  0  0  0
    4.2052   -1.1716    0.0000 Cl  0  0  0  0  0  0  0  0  0  0  0  0
    3.2583   -1.8958    0.0000 O   0  0  0  0  0  0  0  0  0  0  0  0
    4.1083   -1.8958    0.0000 O   0  0  0  0  0  0  0  0  0  0  0  0
  1  2  2  0  0  0  0
  2  3  1  0  0  0  0
  3  7  1  0  0  0  0
  3  4  2  0  0  0  0
  4  5  1  0  0  0  0
  5  8  1  0  0  0  0
  5  6  2  0  0  0  0
  6  1  1  0  0  0  0
  8  9  1  0  0  0  0
  9 10  1  0  0  0  0
  9 11  2  0  0  0  0
  9 12  2  0  0  0  0
M  END
>  <MOLFORMULA>
C7 H6 Cl F O2 S

>  <MOLWEIGHT>
2.086394000000000e+002

>  <code>
MO07830

>  <appearance>
Solid

>  <purity>
97%

>  <product_name>
(3-fluorophenyl)methanesulfonyl chloride

>  <cansmi>
Fc1cccc(c1)CS(=O)(=O)Cl

>  <HBA2>
2

>  <HBD>
0

>  <logP>
2.9751

>  <TPSA>
42.52

>  <MW>
208.638

$$$$

 OpenBabel02131620232D

 13 13  0  0  0  0  0  0  0  0999 V2000
    3.5042   -3.6167    0.0000 N   0  0  0  0  0  0  0  0  0  0  0  0
    4.0333   -3.3208    0.0000 C   0  0  0  0  0  0  0  0  0  0  0  0
    4.5625   -3.0250    0.0000 C   0  0  0  0  0  0  0  0  0  0  0  0
    5.6083   -2.4417    0.0000 C   0  0  0  0  0  0  0  0  0  0  0  0
    5.0833   -3.3333    0.0000 C   0  0  0  0  0  0  0  0  0  0  0  0
    4.5708   -2.4250    0.0000 C   0  0  0  0  0  0  0  0  0  0  0  0
    5.0958   -2.1292    0.0000 C   0  0  0  0  0  0  0  0  0  0  0  0
    5.6000   -3.0417    0.0000 C   0  0  0  0  0  0  0  0  0  0  0  0
    6.1375   -2.1417    0.0000 C   0  0  0  0  0  0  0  0  0  0  0  0
    6.6619   -2.4499    0.0000 S   0  0  0  0  0  0  0  0  0  0  0  0
    7.1911   -2.1499    0.0000 Cl  0  0  0  0  0  0  0  0  0  0  0  0
    6.6571   -3.0582    0.0000 O   0  0  0  0  0  0  0  0  0  0  0  0
    7.1833   -2.7458    0.0000 O   0  0  0  0  0  0  0  0  0  0  0  0
  2  1  3  0  0  0  0
  3  2  1  0  0  0  0
  4  7  1  0  0  0  0
  5  3  2  0  0  0  0
  6  3  1  0  0  0  0
  7  6  2  0  0  0  0
  8  5  1  0  0  0  0
  8  4  2  0  0  0  0
  9  4  1  0  0  0  0
  9 10  1  0  0  0  0
 10 11  1  0  0  0  0
 10 12  2  0  0  0  0
 10 13  2  0  0  0  0
M  END
>  <MOLFORMULA>
C8 H6 Cl N O2 S

>  <MOLWEIGHT>
2.156594000000000e+002

>  <code>
MO07862

>  <appearance>
Solid

>  <purity>
90%

>  <product_name>
(4-cyanophenyl)methanesulfonyl chloride

>  <cansmi>
N#Cc1ccc(cc1)CS(=O)(=O)Cl

>  <HBA2>
3

>  <HBD>
0

>  <logP>
2.70768

>  <TPSA>
66.31

>  <MW>
215.657

$$$$

 OpenBabel02131620232D

 12 12  0  0  0  0  0  0  0  0999 V2000
    5.7250   -2.0500    0.0000 S   0  0  0  0  0  0  0  0  0  0  0  0
    5.0042   -1.6167    0.0000 C   0  0  0  0  0  0  0  0  0  0  0  0
    4.2917   -2.0500    0.0000 C   0  0  0  0  0  0  0  0  0  0  0  0
    4.2917   -2.8583    0.0000 C   0  0  0  0  0  0  0  0  0  0  0  0
    3.5750   -1.6167    0.0000 C   0  0  0  0  0  0  0  0  0  0  0  0
    3.5750   -3.2708    0.0000 C   0  0  0  0  0  0  0  0  0  0  0  0
    2.8708   -2.0500    0.0000 C   0  0  0  0  0  0  0  0  0  0  0  0
    2.8708   -2.8583    0.0000 C   0  0  0  0  0  0  0  0  0  0  0  0
    6.4466   -1.6502    0.0000 Cl  0  0  0  0  0  0  0  0  0  0  0  0
    5.1375   -2.6333    0.0000 O   0  0  0  0  0  0  0  0  0  0  0  0
    6.3083   -2.6333    0.0000 O   0  0  0  0  0  0  0  0  0  0  0  0
    3.5718   -0.7917    0.0000 Br  0  0  0  0  0  0  0  0  0  0  0  0
  1  9  1  0  0  0  0
  1 10  2  0  0  0  0
  1 11  2  0  0  0  0
  2  1  1  0  0  0  0
  3  2  1  0  0  0  0
  4  3  2  0  0  0  0
  5  3  1  0  0  0  0
  5 12  1  0  0  0  0
  6  4  1  0  0  0  0
  6  8  2  0  0  0  0
  7  5  2  0  0  0  0
  8  7  1  0  0  0  0
M  END
>  <MOLFORMULA>
C7 H6 Br Cl O2 S

>  <MOLWEIGHT>
2.695454000000000e+002

>  <code>
MO07945

>  <appearance>
Solid

>  <purity>
97%

>  <product_name>
2-bromobenzylsulfonyl chloride

>  <cansmi>
Brc1ccccc1CS(=O)(=O)Cl

>  <HBA2>
2

>  <HBD>
0

>  <logP>
3.5985

>  <TPSA>
42.52

>  <MW>
269.543

$$$$

 OpenBabel02131620232D

 12 12  0  0  0  0  0  0  0  0999 V2000
    5.7167   -2.2083    0.0000 S   0  0  0  0  0  0  0  0  0  0  0  0
    4.9958   -1.7750    0.0000 C   0  0  0  0  0  0  0  0  0  0  0  0
    4.2833   -2.2083    0.0000 C   0  0  0  0  0  0  0  0  0  0  0  0
    4.2833   -3.0167    0.0000 C   0  0  0  0  0  0  0  0  0  0  0  0
    3.5667   -1.7750    0.0000 C   0  0  0  0  0  0  0  0  0  0  0  0
    3.5667   -3.4292    0.0000 C   0  0  0  0  0  0  0  0  0  0  0  0
    2.8625   -2.2083    0.0000 C   0  0  0  0  0  0  0  0  0  0  0  0
    2.8625   -3.0167    0.0000 C   0  0  0  0  0  0  0  0  0  0  0  0
    3.5646   -4.2552    0.0000 Br  0  0  0  0  0  0  0  0  0  0  0  0
    6.4383   -1.8085    0.0000 Cl  0  0  0  0  0  0  0  0  0  0  0  0
    5.1292   -2.7917    0.0000 O   0  0  0  0  0  0  0  0  0  0  0  0
    6.3000   -2.7917    0.0000 O   0  0  0  0  0  0  0  0  0  0  0  0
  1 10  1  0  0  0  0
  1 11  2  0  0  0  0
  1 12  2  0  0  0  0
  2  1  1  0  0  0  0
  3  2  1  0  0  0  0
  4  3  2  0  0  0  0
  5  3  1  0  0  0  0
  6  4  1  0  0  0  0
  6  8  2  0  0  0  0
  6  9  1  0  0  0  0
  7  5  2  0  0  0  0
  8  7  1  0  0  0  0
M  END
>  <MOLFORMULA>
C7 H6 Br Cl O2 S

>  <MOLWEIGHT>
2.695454000000000e+002

>  <code>
MO07946

>  <appearance>
Solid

>  <purity>
97%

>  <product_name>
3-bromobenzylsulfonyl chloride

>  <cansmi>
Brc1cccc(c1)CS(=O)(=O)Cl

>  <HBA2>
2

>  <HBD>
0

>  <logP>
3.5985

>  <TPSA>
42.52

>  <MW>
269.543

$$$$

 OpenBabel02131620232D

 13 13  0  0  0  0  0  0  0  0999 V2000
    9.3292   -5.3458    0.0000 S   0  0  0  0  0  0  0  0  0  0  0  0
    8.6083   -4.9125    0.0000 C   0  0  0  0  0  0  0  0  0  0  0  0
    7.8958   -5.3458    0.0000 C   0  0  0  0  0  0  0  0  0  0  0  0
    7.8958   -6.1542    0.0000 C   0  0  0  0  0  0  0  0  0  0  0  0
    7.1792   -4.9125    0.0000 C   0  0  0  0  0  0  0  0  0  0  0  0
    7.1792   -6.5667    0.0000 C   0  0  0  0  0  0  0  0  0  0  0  0
    6.4750   -5.3458    0.0000 C   0  0  0  0  0  0  0  0  0  0  0  0
    6.4750   -6.1542    0.0000 C   0  0  0  0  0  0  0  0  0  0  0  0
   10.0508   -4.9460    0.0000 Cl  0  0  0  0  0  0  0  0  0  0  0  0
    8.7417   -5.9292    0.0000 O   0  0  0  0  0  0  0  0  0  0  0  0
    9.9125   -5.9292    0.0000 O   0  0  0  0  0  0  0  0  0  0  0  0
    7.1760   -7.3917    0.0000 C   0  0  0  0  0  0  0  0  0  0  0  0
    7.1708   -8.2125    0.0000 N   0  0  0  0  0  0  0  0  0  0  0  0
  1  9  1  0  0  0  0
  1 10  2  0  0  0  0
  1 11  2  0  0  0  0
  2  1  1  0  0  0  0
  3  2  1  0  0  0  0
  4  3  2  0  0  0  0
  5  3  1  0  0  0  0
  6  4  1  0  0  0  0
  6  8  2  0  0  0  0
  6 12  1  0  0  0  0
  7  5  2  0  0  0  0
  8  7  1  0  0  0  0
 12 13  3  0  0  0  0
M  END
>  <MOLFORMULA>
C8 H6 Cl N O2 S

>  <MOLWEIGHT>
2.156594000000000e+002

>  <code>
MO07947

>  <appearance>
Solid

>  <purity>
97%

>  <product_name>
3-cyanobenzylsulfonyl chloride

>  <cansmi>
N#Cc1cccc(c1)CS(=O)(=O)Cl

>  <HBA2>
3

>  <HBD>
0

>  <logP>
2.70768

>  <TPSA>
66.31

>  <MW>
215.657

$$$$

 OpenBabel02131620232D

 15 15  0  0  0  0  0  0  0  0999 V2000
    6.6875   -1.6791    0.0000 S   0  0  0  0  0  0  0  0  0  0  0  0
    5.9542   -1.2417    0.0000 C   0  0  0  0  0  0  0  0  0  0  0  0
    5.2375   -1.6791    0.0000 C   0  0  0  0  0  0  0  0  0  0  0  0
    5.2375   -2.4958    0.0000 C   0  0  0  0  0  0  0  0  0  0  0  0
    4.5125   -1.2417    0.0000 C   0  0  0  0  0  0  0  0  0  0  0  0
    4.5125   -2.9083    0.0000 C   0  0  0  0  0  0  0  0  0  0  0  0
    3.8000   -1.6791    0.0000 C   0  0  0  0  0  0  0  0  0  0  0  0
    3.8000   -2.4958    0.0000 C   0  0  0  0  0  0  0  0  0  0  0  0
    3.0903   -2.9006    0.0000 C   0  0  0  0  0  0  0  0  0  0  0  0
    2.3824   -2.4886    0.0000 O   0  0  0  0  0  0  0  0  0  0  0  0
    3.0886   -3.7173    0.0000 O   0  0  0  0  0  0  0  0  0  0  0  0
    7.4112   -1.2716    0.0000 Cl  0  0  0  0  0  0  0  0  0  0  0  0
    6.0958   -2.2667    0.0000 O   0  0  0  0  0  0  0  0  0  0  0  0
    7.1000   -2.3958    0.0000 O   0  0  0  0  0  0  0  0  0  0  0  0
    1.6668   -2.8991    0.0000 C   0  0  0  0  0  0  0  0  0  0  0  0
  1 12  1  0  0  0  0
  1 13  2  0  0  0  0
  1 14  2  0  0  0  0
  2  1  1  0  0  0  0
  3  2  1  0  0  0  0
  4  3  2  0  0  0  0
  5  3  1  0  0  0  0
  6  8  2  0  0  0  0
  6  4  1  0  0  0  0
  7  5  2  0  0  0  0
  8  7  1  0  0  0  0
  8  9  1  0  0  0  0
  9 10  1  0  0  0  0
  9 11  2  0  0  0  0
 10 15  1  0  0  0  0
M  END
>  <MOLFORMULA>
C9 H9 Cl O4 S

>  <MOLWEIGHT>
2.486851000000000e+002

>  <code>
MO07948

>  <appearance>
Solid

>  <purity>
95%

>  <product_name>
methyl 4-[(chlorosulfonyl)methyl]benzoate

>  <cansmi>
COC(=O)c1ccc(cc1)CS(=O)(=O)Cl

>  <HBA2>
4

>  <HBD>
0

>  <logP>
2.6226

>  <TPSA>
68.82

>  <MW>
248.683

$$$$

 OpenBabel02131620232D

 10 10  0  0  0  0  0  0  0  0999 V2000
    3.8667   -3.5750    0.0000 S   0  0  0  0  0  0  0  0  0  0  0  0
    4.5360   -3.0842    0.0000 C   0  0  0  0  0  0  0  0  0  0  0  0
    4.2708   -2.2959    0.0000 C   0  0  0  0  0  0  0  0  0  0  0  0
    3.4583   -2.3000    0.0000 C   0  0  0  0  0  0  0  0  0  0  0  0
    3.2015   -3.0883    0.0000 C   0  0  0  0  0  0  0  0  0  0  0  0
    5.3327   -3.3403    0.0000 S   0  0  0  0  0  0  0  0  0  0  0  0
    4.7472   -1.6116    0.0000 Br  0  0  0  0  0  0  0  0  0  0  0  0
    5.5068   -4.1467    0.0000 Cl  0  0  0  0  0  0  0  0  0  0  0  0
    5.3250   -2.5125    0.0000 O   0  0  0  0  0  0  0  0  0  0  0  0
    6.1542   -3.3375    0.0000 O   0  0  0  0  0  0  0  0  0  0  0  0
  1  2  1  0  0  0  0
  2  6  1  0  0  0  0
  2  3  2  0  0  0  0
  3  7  1  0  0  0  0
  3  4  1  0  0  0  0
  4  5  2  0  0  0  0
  5  1  1  0  0  0  0
  6  8  1  0  0  0  0
  6  9  2  0  0  0  0
  6 10  2  0  0  0  0
M  END
>  <MOLFORMULA>
C4 H2 Br Cl O2 S2

>  <MOLWEIGHT>
2.615468000000000e+002

>  <code>
MO08006

>  <appearance>
Liquid

>  <purity>
90%

>  <product_name>
3-bromothiophene-2-sulfonyl chloride

>  <cansmi>
Brc1ccsc1S(=O)(=O)Cl

>  <HBA2>
3

>  <HBD>
0

>  <logP>
3.5189

>  <TPSA>
70.76

>  <MW>
261.544

$$$$

 OpenBabel02131620232D

 15 16  0  0  0  0  0  0  0  0999 V2000
   -0.3542    0.0417    0.0000 S   0  0  0  0  0  0  0  0  0  0  0  0
    0.3151    0.5241    0.0000 C   0  0  0  0  0  0  0  0  0  0  0  0
    0.0583    1.3124    0.0000 C   0  0  0  0  0  0  0  0  0  0  0  0
   -1.0235    0.5241    0.0000 C   0  0  0  0  0  0  0  0  0  0  0  0
   -0.7648    1.3099    0.0000 C   0  0  0  0  0  0  0  0  0  0  0  0
   -1.3154    1.9247    0.0000 C   0  0  0  0  0  0  0  0  0  0  0  0
   -2.1248    1.7550    0.0000 C   0  0  0  0  0  0  0  0  0  0  0  0
   -2.3806    0.9650    0.0000 C   0  0  0  0  0  0  0  0  0  0  0  0
   -1.8283    0.3536    0.0000 C   0  0  0  0  0  0  0  0  0  0  0  0
    0.5419    1.9808    0.0000 C   0  0  0  0  0  0  0  0  0  0  0  0
   -2.6763    2.3686    0.0000 Cl  0  0  0  0  0  0  0  0  0  0  0  0
    1.0994    0.2680    0.0000 S   0  0  0  0  0  0  0  0  0  0  0  0
    1.7133    0.8191    0.0000 Cl  0  0  0  0  0  0  0  0  0  0  0  0
    0.6792   -0.4417    0.0000 O   0  0  0  0  0  0  0  0  0  0  0  0
    1.8917    0.0583    0.0000 O   0  0  0  0  0  0  0  0  0  0  0  0
  1  2  1  0  0  0  0
  2  3  2  0  0  0  0
  2 12  1  0  0  0  0
  3 10  1  0  0  0  0
  3  5  1  0  0  0  0
  4  1  1  0  0  0  0
  4  5  2  0  0  0  0
  5  6  1  0  0  0  0
  6  7  2  0  0  0  0
  7  8  1  0  0  0  0
  7 11  1  0  0  0  0
  8  9  2  0  0  0  0
  9  4  1  0  0  0  0
 12 13  1  0  0  0  0
 12 14  2  0  0  0  0
 12 15  2  0  0  0  0
M  END
>  <MOLFORMULA>
C9 H6 Cl2 O2 S2

>  <MOLWEIGHT>
2.811824000000000e+002

>  <code>
MWP00006

>  <appearance>
solid

>  <purity>
97%

>  <product_name>
5-chloro-3-methylbenzo[b]thiophene-2-sulfonyl chloride

>  <cansmi>
Clc1ccc2c(c1)c(C)c(s2)S(=O)(=O)Cl

>  <HBA2>
3

>  <HBD>
0

>  <logP>
4.8714

>  <TPSA>
70.76

>  <MW>
281.179

$$$$

 OpenBabel02131620232D

 12 12  0  0  0  0  0  0  0  0999 V2000
    2.0042    1.0083    0.0000 S   0  0  0  0  0  0  0  0  0  0  0  0
    0.6667    0.2333    0.0000 C   0  0  0  0  0  0  0  0  0  0  0  0
    0.6667   -1.3042    0.0000 C   0  0  0  0  0  0  0  0  0  0  0  0
    3.0792    2.0833    0.0000 O   0  0  0  0  0  0  0  0  0  0  0  0
    0.9042    2.0833    0.0000 O   0  0  0  0  0  0  0  0  0  0  0  0
   -0.6625    1.0083    0.0000 C   0  0  0  0  0  0  0  0  0  0  0  0
    3.3250    0.2208    0.0000 Cl  0  0  0  0  0  0  0  0  0  0  0  0
   -0.6708   -2.0750    0.0000 C   0  0  0  0  0  0  0  0  0  0  0  0
   -1.9958   -1.2917    0.0000 C   0  0  0  0  0  0  0  0  0  0  0  0
   -1.9958    0.2333    0.0000 C   0  0  0  0  0  0  0  0  0  0  0  0
   -3.3333   -2.0625    0.0000 Br  0  0  0  0  0  0  0  0  0  0  0  0
    2.0042   -2.0750    0.0000 C   0  0  0  0  0  0  0  0  0  0  0  0
  2  1  1  0  0  0  0
  3  2  1  0  0  0  0
  4  1  2  0  0  0  0
  5  1  2  0  0  0  0
  6  2  2  0  0  0  0
  7  1  1  0  0  0  0
  8  3  2  0  0  0  0
  9 10  2  0  0  0  0
  9  8  1  0  0  0  0
 10  6  1  0  0  0  0
 11  9  1  0  0  0  0
 12  3  1  0  0  0  0
M  END
>  <MOLFORMULA>
C7 H6 Br Cl O2 S

>  <MOLWEIGHT>
2.695454000000000e+002

>  <code>
RDP00246

>  <appearance>
solid

>  <purity>
97%

>  <product_name>
4-bromo-2-methylbenzene-1-sulfonyl chloride

>  <cansmi>
Brc1ccc(c(c1)C)S(=O)(=O)Cl

>  <HBA2>
2

>  <HBD>
0

>  <logP>
3.7658

>  <TPSA>
42.52

>  <MW>
269.543

$$$$

 OpenBabel02131620232D

 11 11  0  0  0  0  0  0  0  0999 V2000
    1.3375    1.0000    0.0000 S   0  0  0  0  0  0  0  0  0  0  0  0
    0.0042    0.2333    0.0000 C   0  0  0  0  0  0  0  0  0  0  0  0
    0.2417    2.0833    0.0000 O   0  0  0  0  0  0  0  0  0  0  0  0
    2.4125    2.0833    0.0000 O   0  0  0  0  0  0  0  0  0  0  0  0
    0.0042   -1.3042    0.0000 C   0  0  0  0  0  0  0  0  0  0  0  0
    2.6542    0.2208    0.0000 Cl  0  0  0  0  0  0  0  0  0  0  0  0
    1.3292   -2.0750    0.0000 Cl  0  0  0  0  0  0  0  0  0  0  0  0
   -1.3333    1.0083    0.0000 C   0  0  0  0  0  0  0  0  0  0  0  0
   -1.3333   -2.0750    0.0000 C   0  0  0  0  0  0  0  0  0  0  0  0
   -2.6625    0.2333    0.0000 C   0  0  0  0  0  0  0  0  0  0  0  0
   -2.6625   -1.2917    0.0000 C   0  0  0  0  0  0  0  0  0  0  0  0
  2  1  1  0  0  0  0
  3  1  2  0  0  0  0
  4  1  2  0  0  0  0
  5  2  1  0  0  0  0
  6  1  1  0  0  0  0
  7  5  1  0  0  0  0
  8  2  2  0  0  0  0
  9  5  2  0  0  0  0
 10  8  1  0  0  0  0
 11 10  2  0  0  0  0
 11  9  1  0  0  0  0
M  END
>  <MOLFORMULA>
C6 H4 Cl2 O2 S

>  <MOLWEIGHT>
2.110676000000000e+002

>  <code>
RF02645

>  <appearance>
solid

>  <purity>
97%

>  <product_name>
2-chlorobenzene-1-sulfonyl chloride

>  <cansmi>
Clc1ccccc1S(=O)(=O)Cl

>  <HBA2>
2

>  <HBD>
0

>  <logP>
3.3483

>  <TPSA>
42.52

>  <MW>
211.066

$$$$

 OpenBabel02131620232D

 13 13  0  0  0  0  0  0  0  0999 V2000
    2.0042    1.0083    0.0000 S   0  0  0  0  0  0  0  0  0  0  0  0
    0.6667    0.2333    0.0000 C   0  0  0  0  0  0  0  0  0  0  0  0
    0.6667   -1.3042    0.0000 C   0  0  0  0  0  0  0  0  0  0  0  0
   -0.6625    1.0083    0.0000 C   0  0  0  0  0  0  0  0  0  0  0  0
   -0.6708   -2.0792    0.0000 C   0  0  0  0  0  0  0  0  0  0  0  0
   -1.9958   -1.2917    0.0000 C   0  0  0  0  0  0  0  0  0  0  0  0
   -1.9958    0.2333    0.0000 C   0  0  0  0  0  0  0  0  0  0  0  0
    3.0792    2.0833    0.0000 O   0  0  0  0  0  0  0  0  0  0  0  0
    0.9042    2.0833    0.0000 O   0  0  0  0  0  0  0  0  0  0  0  0
    3.3250    0.2208    0.0000 Cl  0  0  0  0  0  0  0  0  0  0  0  0
    2.0042   -2.0792    0.0000 Cl  0  0  0  0  0  0  0  0  0  0  0  0
   -3.3333   -2.0625    0.0000 Cl  0  0  0  0  0  0  0  0  0  0  0  0
   -3.3333    1.0083    0.0000 C   0  0  0  0  0  0  0  0  0  0  0  0
  2  1  1  0  0  0  0
  3  2  1  0  0  0  0
  4  2  2  0  0  0  0
  5  3  2  0  0  0  0
  6  7  2  0  0  0  0
  6  5  1  0  0  0  0
  7  4  1  0  0  0  0
  8  1  2  0  0  0  0
  9  1  2  0  0  0  0
 10  1  1  0  0  0  0
 11  3  1  0  0  0  0
 12  6  1  0  0  0  0
 13  7  1  0  0  0  0
M  END
>  <MOLFORMULA>
C7 H5 Cl3 O2 S

>  <MOLWEIGHT>
2.595395000000000e+002

>  <code>
SB00644

>  <appearance>
solid

>  <purity>
95%

>  <product_name>
2,4-dichloro-5-methylbenzene-1-sulfonyl chloride

>  <cansmi>
Clc1cc(Cl)c(cc1S(=O)(=O)Cl)C

>  <HBA2>
2

>  <HBD>
0

>  <logP>
4.3101

>  <TPSA>
42.52

>  <MW>
259.537

$$$$

 OpenBabel02131620232D

 14 14  0  0  0  0  0  0  0  0999 V2000
    0.6667    1.7708    0.0000 S   0  0  0  0  0  0  0  0  0  0  0  0
   -0.6708   -0.5375    0.0000 C   0  0  0  0  0  0  0  0  0  0  0  0
   -0.6708    1.0083    0.0000 C   0  0  0  0  0  0  0  0  0  0  0  0
    0.6667   -1.3042    0.0000 C   0  0  0  0  0  0  0  0  0  0  0  0
   -0.4333    2.8500    0.0000 O   0  0  0  0  0  0  0  0  0  0  0  0
    1.7417    2.8500    0.0000 O   0  0  0  0  0  0  0  0  0  0  0  0
    1.9875    0.9958    0.0000 Cl  0  0  0  0  0  0  0  0  0  0  0  0
    0.6667   -2.8417    0.0000 O   0  0  0  0  0  0  0  0  0  0  0  0
    1.9917   -0.5375    0.0000 O   0  0  0  0  0  0  0  0  0  0  0  0
   -2.0083   -1.3042    0.0000 C   0  0  0  0  0  0  0  0  0  0  0  0
   -2.0000    1.7750    0.0000 C   0  0  0  0  0  0  0  0  0  0  0  0
    3.3292   -1.3042    0.0000 C   0  0  0  0  0  0  0  0  0  0  0  0
   -3.3333   -0.5292    0.0000 C   0  0  0  0  0  0  0  0  0  0  0  0
   -3.3333    1.0083    0.0000 C   0  0  0  0  0  0  0  0  0  0  0  0
  2  3  1  0  0  0  0
  3  1  1  0  0  0  0
  4  2  1  0  0  0  0
  5  1  2  0  0  0  0
  6  1  2  0  0  0  0
  7  1  1  0  0  0  0
  8  4  2  0  0  0  0
  9  4  1  0  0  0  0
 10  2  2  0  0  0  0
 11  3  2  0  0  0  0
 12  9  1  0  0  0  0
 13 14  2  0  0  0  0
 13 10  1  0  0  0  0
 14 11  1  0  0  0  0
M  END
>  <MOLFORMULA>
C8 H7 Cl O4 S

>  <MOLWEIGHT>
2.346583000000000e+002

>  <code>
SB00929

>  <appearance>
solid

>  <purity>
97%

>  <product_name>
methyl 2-chlorosulfonylbenzoate

>  <cansmi>
COC(=O)c1ccccc1S(=O)(=O)Cl

>  <HBA2>
4

>  <HBD>
0

>  <logP>
2.4815

>  <TPSA>
68.82

>  <MW>
234.657

$$$$

 OpenBabel02131620232D

 13 13  0  0  0  0  0  0  0  0999 V2000
    2.6750    1.7708    0.0000 S   0  0  0  0  0  0  0  0  0  0  0  0
   -2.6708   -1.3042    0.0000 N   0  0  0  0  0  0  0  0  0  0  0  0
    1.3417    1.0000    0.0000 C   0  0  0  0  0  0  0  0  0  0  0  0
   -1.3250   -0.5292    0.0000 C   0  0  0  0  0  0  0  0  0  0  0  0
    1.5792    2.8458    0.0000 O   0  0  0  0  0  0  0  0  0  0  0  0
    3.7542    2.8458    0.0000 O   0  0  0  0  0  0  0  0  0  0  0  0
   -4.0000   -0.5292    0.0000 O   0  0  0  0  0  0  0  0  0  0  0  0
   -2.6708   -2.8417    0.0000 O   0  0  0  0  0  0  0  0  0  0  0  0
    3.9917    0.9875    0.0000 Cl  0  0  0  0  0  0  0  0  0  0  0  0
    0.0042    1.7708    0.0000 C   0  0  0  0  0  0  0  0  0  0  0  0
    1.3417   -0.5417    0.0000 C   0  0  0  0  0  0  0  0  0  0  0  0
    0.0042   -1.3125    0.0000 C   0  0  0  0  0  0  0  0  0  0  0  0
   -1.3333    1.0000    0.0000 C   0  0  0  0  0  0  0  0  0  0  0  0
  2  4  1  0  0  0  0
  3  1  1  0  0  0  0
  4 12  1  0  0  0  0
  4 13  2  0  0  0  0
  5  1  2  0  0  0  0
  6  1  2  0  0  0  0
  7  2  2  0  0  0  0
  8  2  2  0  0  0  0
  9  1  1  0  0  0  0
 10  3  2  0  0  0  0
 11  3  1  0  0  0  0
 12 11  2  0  0  0  0
 13 10  1  0  0  0  0
M  END
>  <MOLFORMULA>
C6 H4 Cl N O4 S

>  <MOLWEIGHT>
2.216196000000000e+002

>  <code>
SB01738

>  <appearance>
solid

>  <purity>
97%

>  <product_name>
4-nitrobenzene-1-sulfonyl chloride

>  <cansmi>
O=N(=O)c1ccc(cc1)S(=O)(=O)Cl

>  <HBA2>
2

>  <HBD>
0

>  <logP>
3.1263

>  <TPSA>
88.34

>  <MW>
221.618

$$$$

 OpenBabel02131620232D

 15 15  0  0  0  0  0  0  0  0999 V2000
    2.7542    1.7958    0.0000 S   0  0  0  0  0  0  0  0  0  0  0  0
    1.4167    1.0208    0.0000 C   0  0  0  0  0  0  0  0  0  0  0  0
   -2.5833   -1.2792    0.0000 C   0  0  0  0  0  0  0  0  0  0  0  0
    1.4167   -0.5167    0.0000 C   0  0  0  0  0  0  0  0  0  0  0  0
   -1.2458   -0.5042    0.0000 C   0  0  0  0  0  0  0  0  0  0  0  0
    0.0875    1.7958    0.0000 C   0  0  0  0  0  0  0  0  0  0  0  0
    0.0875   -1.2792    0.0000 C   0  0  0  0  0  0  0  0  0  0  0  0
    1.6625    2.8708    0.0000 O   0  0  0  0  0  0  0  0  0  0  0  0
    3.8292    2.8708    0.0000 O   0  0  0  0  0  0  0  0  0  0  0  0
    4.0750    1.0125    0.0000 Cl  0  0  0  0  0  0  0  0  0  0  0  0
   -1.2458    1.0208    0.0000 C   0  0  0  0  0  0  0  0  0  0  0  0
   -2.8458   -2.8667    0.0000 F   0  0  0  0  0  0  0  0  0  0  0  0
   -3.7958   -1.9750    0.0000 F   0  0  0  0  0  0  0  0  0  0  0  0
   -4.0833   -0.7042    0.0000 F   0  0  0  0  0  0  0  0  0  0  0  0
    2.7542   -1.2875    0.0000 Cl  0  0  0  0  0  0  0  0  0  0  0  0
  2  1  1  0  0  0  0
  3  5  1  0  0  0  0
  4  2  1  0  0  0  0
  5 11  2  0  0  0  0
  6  2  2  0  0  0  0
  7  4  2  0  0  0  0
  7  5  1  0  0  0  0
  8  1  2  0  0  0  0
  9  1  2  0  0  0  0
 10  1  1  0  0  0  0
 11  6  1  0  0  0  0
 12  3  1  0  0  0  0
 13  3  1  0  0  0  0
 14  3  1  0  0  0  0
 15  4  1  0  0  0  0
M  END
>  <MOLFORMULA>
C7 H3 Cl2 F3 O2 S

>  <MOLWEIGHT>
2.790647000000000e+002

>  <code>
SEW01287

>  <appearance>
solid

>  <purity>
97%

>  <product_name>
2-chloro-4-(trifluoromethyl)benzene-1-sulfonyl chloride

>  <cansmi>
Clc1cc(ccc1S(=O)(=O)Cl)C(F)(F)F

>  <HBA2>
2

>  <HBD>
0

>  <logP>
4.3671

>  <TPSA>
42.52

>  <MW>
279.064

$$$$

 OpenBabel02131620232D

 13 13  0  0  0  0  0  0  0  0999 V2000
    2.6500    1.3833    0.0000 S   0  0  0  0  0  0  0  0  0  0  0  0
    1.3292    0.6083    0.0000 C   0  0  0  0  0  0  0  0  0  0  0  0
    1.3250   -0.9250    0.0000 C   0  0  0  0  0  0  0  0  0  0  0  0
   -3.9875   -2.4792    0.0000 N   0  0  0  0  0  0  0  0  0  0  0  0
   -0.0083    1.3833    0.0000 C   0  0  0  0  0  0  0  0  0  0  0  0
    3.7292    2.4875    0.0000 O   0  0  0  0  0  0  0  0  0  0  0  0
    1.5417    2.4750    0.0000 O   0  0  0  0  0  0  0  0  0  0  0  0
   -2.6625   -1.7042    0.0000 C   0  0  0  0  0  0  0  0  0  0  0  0
    3.9792    0.6208    0.0000 Cl  0  0  0  0  0  0  0  0  0  0  0  0
    0.0042   -1.7042    0.0000 C   0  0  0  0  0  0  0  0  0  0  0  0
   -1.3333   -0.9417    0.0000 C   0  0  0  0  0  0  0  0  0  0  0  0
    2.6625   -1.6792    0.0000 Cl  0  0  0  0  0  0  0  0  0  0  0  0
   -1.3458    0.5958    0.0000 C   0  0  0  0  0  0  0  0  0  0  0  0
  2  1  1  0  0  0  0
  3  2  1  0  0  0  0
  4  8  3  0  0  0  0
  5  2  2  0  0  0  0
  6  1  2  0  0  0  0
  7  1  2  0  0  0  0
  8 11  1  0  0  0  0
  9  1  1  0  0  0  0
 10  3  2  0  0  0  0
 11 13  2  0  0  0  0
 11 10  1  0  0  0  0
 12  3  1  0  0  0  0
 13  5  1  0  0  0  0
M  END
>  <MOLFORMULA>
C7 H3 Cl2 N O2 S

>  <MOLWEIGHT>
2.360777000000000e+002

>  <code>
SEW01377

>  <appearance>
solid

>  <purity>
95%

>  <product_name>
2-chloro-4-cyanobenzene-1-sulfonyl chloride

>  <cansmi>
N#Cc1ccc(c(c1)Cl)S(=O)(=O)Cl

>  <HBA2>
3

>  <HBD>
0

>  <logP>
3.21998

>  <TPSA>
66.31

>  <MW>
236.075

$$$$

 OpenBabel02131620232D

 11 11  0  0  0  0  0  0  0  0999 V2000
    0.3375    0.4959    0.0000 S   0  0  0  0  0  0  0  0  0  0  0  0
    1.0068    0.9783    0.0000 C   0  0  0  0  0  0  0  0  0  0  0  0
    0.7500    1.7666    0.0000 C   0  0  0  0  0  0  0  0  0  0  0  0
   -0.0750    1.7666    0.0000 C   0  0  0  0  0  0  0  0  0  0  0  0
   -0.3318    0.9783    0.0000 C   0  0  0  0  0  0  0  0  0  0  0  0
   -0.5597    2.4343    0.0000 Br  0  0  0  0  0  0  0  0  0  0  0  0
   -1.1160    0.7222    0.0000 Cl  0  0  0  0  0  0  0  0  0  0  0  0
    1.7910    0.7222    0.0000 S   0  0  0  0  0  0  0  0  0  0  0  0
    2.4050    1.2734    0.0000 Cl  0  0  0  0  0  0  0  0  0  0  0  0
    1.2000    0.1417    0.0000 O   0  0  0  0  0  0  0  0  0  0  0  0
    2.5000    0.3125    0.0000 O   0  0  0  0  0  0  0  0  0  0  0  0
  1  2  1  0  0  0  0
  2  3  2  0  0  0  0
  2  8  1  0  0  0  0
  3  4  1  0  0  0  0
  4  6  1  0  0  0  0
  4  5  2  0  0  0  0
  5  7  1  0  0  0  0
  5  1  1  0  0  0  0
  8  9  1  0  0  0  0
  8 10  2  0  0  0  0
  8 11  2  0  0  0  0
M  END
>  <MOLFORMULA>
C4 H Br Cl2 O2 S2

>  <MOLWEIGHT>
2.959919000000000e+002

>  <code>
SEW02652

>  <appearance>
solid

>  <purity>
95%

>  <product_name>
4-bromo-5-chlorothiophene-2-sulfonyl chloride

>  <cansmi>
Brc1cc(sc1Cl)S(=O)(=O)Cl

>  <HBA2>
3

>  <HBD>
0

>  <logP>
4.1723

>  <TPSA>
70.76

>  <MW>
295.99

$$$$

 OpenBabel02131620232D

 19 20  0  0  0  0  0  0  0  0999 V2000
   -0.5083   -2.1625    0.0000 S   0  0  0  0  0  0  0  0  0  0  0  0
    0.1610   -1.6800    0.0000 C   0  0  0  0  0  0  0  0  0  0  0  0
   -0.0958   -0.8917    0.0000 C   0  0  0  0  0  0  0  0  0  0  0  0
   -0.9208   -0.8917    0.0000 C   0  0  0  0  0  0  0  0  0  0  0  0
   -1.1776   -1.6800    0.0000 C   0  0  0  0  0  0  0  0  0  0  0  0
   -1.4055   -0.2241    0.0000 C   0  0  0  0  0  0  0  0  0  0  0  0
   -1.9619   -1.9361    0.0000 C   0  0  0  0  0  0  0  0  0  0  0  0
   -2.5758   -1.3850    0.0000 F   0  0  0  0  0  0  0  0  0  0  0  0
   -2.1322   -2.7433    0.0000 F   0  0  0  0  0  0  0  0  0  0  0  0
   -2.0063   -1.1123    0.0000 F   0  0  0  0  0  0  0  0  0  0  0  0
    0.3888   -0.2241    0.0000 S   0  0  0  0  0  0  0  0  0  0  0  0
    1.2093   -0.3100    0.0000 Cl  0  0  0  0  0  0  0  0  0  0  0  0
   -0.3292    0.1917    0.0000 O   0  0  0  0  0  0  0  0  0  0  0  0
    0.7958    0.4958    0.0000 O   0  0  0  0  0  0  0  0  0  0  0  0
   -1.0692    0.5269    0.0000 C   0  0  0  0  0  0  0  0  0  0  0  0
   -1.5531    1.1941    0.0000 C   0  0  0  0  0  0  0  0  0  0  0  0
   -2.3746    1.1085    0.0000 C   0  0  0  0  0  0  0  0  0  0  0  0
   -2.7097    0.3500    0.0000 C   0  0  0  0  0  0  0  0  0  0  0  0
   -2.2238   -0.3140    0.0000 C   0  0  0  0  0  0  0  0  0  0  0  0
  1  2  1  0  0  0  0
  2  3  2  0  0  0  0
  3  4  1  0  0  0  0
  3 11  1  0  0  0  0
  4  6  1  0  0  0  0
  4  5  2  0  0  0  0
  5  1  1  0  0  0  0
  5  7  1  0  0  0  0
  6 15  2  0  0  0  0
  7 10  1  0  0  0  0
  7  8  1  0  0  0  0
  7  9  1  0  0  0  0
 11 12  1  0  0  0  0
 11 13  2  0  0  0  0
 11 14  2  0  0  0  0
 15 16  1  0  0  0  0
 16 17  2  0  0  0  0
 17 18  1  0  0  0  0
 18 19  2  0  0  0  0
 19  6  1  0  0  0  0
M  END
>  <MOLFORMULA>
C11 H6 Cl F3 O2 S2

>  <MOLWEIGHT>
3.267454000000000e+002

>  <code>
SEW03270

>  <appearance>
solid

>  <purity>
TECH

>  <product_name>
4-phenyl-5-(trifluoromethyl)thiophene-3-sulfonyl chloride

>  <cansmi>
FC(c1scc(c1c1ccccc1)S(=O)(=O)Cl)(F)F

>  <HBA2>
3

>  <HBD>
0

>  <logP>
5.4422

>  <TPSA>
70.76

>  <MW>
326.742

$$$$

 OpenBabel02131620232D

 12 12  0  0  0  0  0  0  0  0999 V2000
    1.3375    0.7708    0.0000 S   0  0  0  0  0  0  0  0  0  0  0  0
    0.0042    0.0083    0.0000 C   0  0  0  0  0  0  0  0  0  0  0  0
    0.2417    1.8500    0.0000 O   0  0  0  0  0  0  0  0  0  0  0  0
    2.4125    1.8500    0.0000 O   0  0  0  0  0  0  0  0  0  0  0  0
   -1.3333    0.7708    0.0000 C   0  0  0  0  0  0  0  0  0  0  0  0
    0.0042   -1.5375    0.0000 C   0  0  0  0  0  0  0  0  0  0  0  0
    2.6542   -0.0042    0.0000 Cl  0  0  0  0  0  0  0  0  0  0  0  0
   -1.3333    2.3083    0.0000 F   0  0  0  0  0  0  0  0  0  0  0  0
    1.3375   -2.3042    0.0000 F   0  0  0  0  0  0  0  0  0  0  0  0
   -2.6625   -1.5375    0.0000 C   0  0  0  0  0  0  0  0  0  0  0  0
   -2.6625    0.0000    0.0000 C   0  0  0  0  0  0  0  0  0  0  0  0
   -1.3333   -2.3042    0.0000 C   0  0  0  0  0  0  0  0  0  0  0  0
  2  1  1  0  0  0  0
  3  1  2  0  0  0  0
  4  1  2  0  0  0  0
  5  2  2  0  0  0  0
  6  2  1  0  0  0  0
  7  1  1  0  0  0  0
  8  5  1  0  0  0  0
  9  6  1  0  0  0  0
 10 12  1  0  0  0  0
 10 11  2  0  0  0  0
 11  5  1  0  0  0  0
 12  6  2  0  0  0  0
M  END
>  <MOLFORMULA>
C6 H3 Cl F2 O2 S

>  <MOLWEIGHT>
2.126027000000000e+002

>  <code>
SEW03318

>  <appearance>
solid

>  <purity>
97%

>  <product_name>
2,6-difluorobenzene-1-sulfonyl chloride

>  <cansmi>
Fc1cccc(c1S(=O)(=O)Cl)F

>  <HBA2>
2

>  <HBD>
0

>  <logP>
2.9731

>  <TPSA>
42.52

>  <MW>
212.602

$$$$

 OpenBabel02131620232D

 16 16  0  0  0  0  0  0  0  0999 V2000
    2.7542    1.5708    0.0000 S   0  0  0  0  0  0  0  0  0  0  0  0
    1.4167    0.8000    0.0000 C   0  0  0  0  0  0  0  0  0  0  0  0
   -2.5833   -1.5125    0.0000 C   0  0  0  0  0  0  0  0  0  0  0  0
    1.4167   -0.7417    0.0000 C   0  0  0  0  0  0  0  0  0  0  0  0
    0.0875    1.5708    0.0000 C   0  0  0  0  0  0  0  0  0  0  0  0
   -1.2458   -0.7417    0.0000 C   0  0  0  0  0  0  0  0  0  0  0  0
   -1.2458    0.8000    0.0000 C   0  0  0  0  0  0  0  0  0  0  0  0
    0.0875   -1.5042    0.0000 C   0  0  0  0  0  0  0  0  0  0  0  0
    1.6625    2.6458    0.0000 O   0  0  0  0  0  0  0  0  0  0  0  0
    3.8292    2.6458    0.0000 O   0  0  0  0  0  0  0  0  0  0  0  0
    4.0792    0.7875    0.0000 Cl  0  0  0  0  0  0  0  0  0  0  0  0
   -3.7958   -2.2167    0.0000 F   0  0  0  0  0  0  0  0  0  0  0  0
   -4.0833   -0.9417    0.0000 F   0  0  0  0  0  0  0  0  0  0  0  0
   -2.8333   -3.1042    0.0000 F   0  0  0  0  0  0  0  0  0  0  0  0
    2.7542   -1.5042    0.0000 Cl  0  0  0  0  0  0  0  0  0  0  0  0
    0.0875    3.1083    0.0000 Cl  0  0  0  0  0  0  0  0  0  0  0  0
  2  1  1  0  0  0  0
  3  6  1  0  0  0  0
  4  2  1  0  0  0  0
  5  2  2  0  0  0  0
  6  7  2  0  0  0  0
  6  8  1  0  0  0  0
  7  5  1  0  0  0  0
  8  4  2  0  0  0  0
  9  1  2  0  0  0  0
 10  1  2  0  0  0  0
 11  1  1  0  0  0  0
 12  3  1  0  0  0  0
 13  3  1  0  0  0  0
 14  3  1  0  0  0  0
 15  4  1  0  0  0  0
 16  5  1  0  0  0  0
M  END
>  <MOLFORMULA>
C7 H2 Cl3 F3 O2 S

>  <MOLWEIGHT>
3.135098000000000e+002

>  <code>
SEW03506

>  <appearance>
solid

>  <purity>
95%

>  <product_name>
2,6-dichloro-4-(trifluoromethyl)benzene-1-sulfonyl chloride

>  <cansmi>
Clc1cc(cc(c1S(=O)(=O)Cl)Cl)C(F)(F)F

>  <HBA2>
2

>  <HBD>
0

>  <logP>
5.0205

>  <TPSA>
42.52

>  <MW>
313.509

$$$$

 OpenBabel02131620232D

 15 15  0  0  0  0  0  0  0  0999 V2000
    1.3292    0.3875    0.0000 S   0  0  0  0  0  0  0  0  0  0  0  0
    0.0000   -0.3792    0.0000 C   0  0  0  0  0  0  0  0  0  0  0  0
   -1.3375    0.3875    0.0000 C   0  0  0  0  0  0  0  0  0  0  0  0
   -1.3375    1.9250    0.0000 C   0  0  0  0  0  0  0  0  0  0  0  0
    2.5500    1.3833    0.0000 O   0  0  0  0  0  0  0  0  0  0  0  0
   -0.0083    1.2750    0.0000 O   0  0  0  0  0  0  0  0  0  0  0  0
    2.6667   -0.3792    0.0000 Cl  0  0  0  0  0  0  0  0  0  0  0  0
   -2.6708    2.7042    0.0000 O   0  0  0  0  0  0  0  0  0  0  0  0
   -1.3375   -2.6917    0.0000 N   0  0  0  0  0  0  0  0  0  0  0  0
    0.0000   -1.9167    0.0000 C   0  0  0  0  0  0  0  0  0  0  0  0
    0.0000    2.7042    0.0000 O   0  0  0  0  0  0  0  0  0  0  0  0
   -2.6708   -0.3792    0.0000 C   0  0  0  0  0  0  0  0  0  0  0  0
   -2.6708   -1.9167    0.0000 C   0  0  0  0  0  0  0  0  0  0  0  0
    1.3292    1.9250    0.0000 C   0  0  0  0  0  0  0  0  0  0  0  0
    2.6667    2.7042    0.0000 C   0  0  0  0  0  0  0  0  0  0  0  0
  2  1  1  0  0  0  0
  3  2  2  0  0  0  0
  4  3  1  0  0  0  0
  5  1  2  0  0  0  0
  6  1  2  0  0  0  0
  7  1  1  0  0  0  0
  8  4  2  0  0  0  0
  9 10  2  0  0  0  0
 10  2  1  0  0  0  0
 11  4  1  0  0  0  0
 12  3  1  0  0  0  0
 13  9  1  0  0  0  0
 13 12  2  0  0  0  0
 14 11  1  0  0  0  0
 15 14  1  0  0  0  0
M  END
>  <MOLFORMULA>
C8 H8 Cl N O4 S

>  <MOLWEIGHT>
2.496732000000000e+002

>  <code>
SP00265

>  <appearance>
liquid

>  <purity>
95%

>  <product_name>
ethyl 3-(chlorosulfonyl)isonicotinate

>  <cansmi>
CCOC(=O)c1ccncc1S(=O)(=O)Cl

>  <HBA2>
5

>  <HBD>
0

>  <logP>
2.2666

>  <TPSA>
81.71

>  <MW>
249.671

$$$$

 OpenBabel02131620232D

 15 15  0  0  0  0  0  0  0  0999 V2000
   -1.4125   -1.5666    0.0000 O   0  0  0  0  0  0  0  0  0  0  0  0
   -0.7432   -1.0842    0.0000 C   0  0  0  0  0  0  0  0  0  0  0  0
   -1.0000   -0.2959    0.0000 C   0  0  0  0  0  0  0  0  0  0  0  0
   -1.8250   -0.2959    0.0000 C   0  0  0  0  0  0  0  0  0  0  0  0
   -2.0818   -1.0842    0.0000 C   0  0  0  0  0  0  0  0  0  0  0  0
   -2.8660   -1.3403    0.0000 C   0  0  0  0  0  0  0  0  0  0  0  0
    0.0410   -1.3403    0.0000 C   0  0  0  0  0  0  0  0  0  0  0  0
   -2.3097    0.3718    0.0000 C   0  0  0  0  0  0  0  0  0  0  0  0
   -1.9738    1.1253    0.0000 O   0  0  0  0  0  0  0  0  0  0  0  0
   -3.1302    0.2858    0.0000 O   0  0  0  0  0  0  0  0  0  0  0  0
   -0.5153    0.3718    0.0000 S   0  0  0  0  0  0  0  0  0  0  0  0
    0.3052    0.2858    0.0000 Cl  0  0  0  0  0  0  0  0  0  0  0  0
   -1.2333    0.7875    0.0000 O   0  0  0  0  0  0  0  0  0  0  0  0
   -0.1083    1.0917    0.0000 O   0  0  0  0  0  0  0  0  0  0  0  0
   -3.6148    0.9535    0.0000 C   0  0  0  0  0  0  0  0  0  0  0  0
  1  2  1  0  0  0  0
  2  3  2  0  0  0  0
  2  7  1  0  0  0  0
  3  4  1  0  0  0  0
  3 11  1  0  0  0  0
  4  8  1  0  0  0  0
  4  5  2  0  0  0  0
  5  1  1  0  0  0  0
  5  6  1  0  0  0  0
  8  9  2  0  0  0  0
  8 10  1  0  0  0  0
 10 15  1  0  0  0  0
 11 12  1  0  0  0  0
 11 13  2  0  0  0  0
 11 14  2  0  0  0  0
M  END
>  <MOLFORMULA>
C8 H9 Cl O5 S

>  <MOLWEIGHT>
2.526731000000000e+002

>  <code>
SP01263

>  <appearance>
solid

>  <purity>
95%

>  <product_name>
methyl 4-(chlorosulfonyl)-2,5-dimethyl-3-furoate

>  <cansmi>
COC(=O)c1c(C)oc(c1S(=O)(=O)Cl)C

>  <HBA2>
5

>  <HBD>
0

>  <logP>
2.6913

>  <TPSA>
81.96

>  <MW>
252.672

$$$$

 OpenBabel02131620232D

 13 13  0  0  0  0  0  0  0  0999 V2000
   -1.3792   -0.8166    0.0000 O   0  0  0  0  0  0  0  0  0  0  0  0
   -0.7099   -0.3342    0.0000 C   0  0  0  0  0  0  0  0  0  0  0  0
   -0.9667    0.4541    0.0000 C   0  0  0  0  0  0  0  0  0  0  0  0
   -1.7917    0.4541    0.0000 C   0  0  0  0  0  0  0  0  0  0  0  0
   -2.0485   -0.3342    0.0000 C   0  0  0  0  0  0  0  0  0  0  0  0
    0.0744   -0.5903    0.0000 S   0  0  0  0  0  0  0  0  0  0  0  0
    0.6883   -0.0391    0.0000 Cl  0  0  0  0  0  0  0  0  0  0  0  0
   -2.8327   -0.5903    0.0000 C   0  0  0  0  0  0  0  0  0  0  0  0
   -3.4466   -0.0391    0.0000 O   0  0  0  0  0  0  0  0  0  0  0  0
   -3.0030   -1.3975    0.0000 O   0  0  0  0  0  0  0  0  0  0  0  0
   -4.2309   -0.2953    0.0000 C   0  0  0  0  0  0  0  0  0  0  0  0
   -0.5167   -1.1708    0.0000 O   0  0  0  0  0  0  0  0  0  0  0  0
    0.8667   -0.8000    0.0000 O   0  0  0  0  0  0  0  0  0  0  0  0
  1  2  1  0  0  0  0
  2  3  2  0  0  0  0
  2  6  1  0  0  0  0
  3  4  1  0  0  0  0
  4  5  2  0  0  0  0
  5  8  1  0  0  0  0
  5  1  1  0  0  0  0
  6  7  1  0  0  0  0
  6 12  2  0  0  0  0
  6 13  2  0  0  0  0
  8  9  1  0  0  0  0
  8 10  2  0  0  0  0
  9 11  1  0  0  0  0
M  END
>  <MOLFORMULA>
C6 H5 Cl O5 S

>  <MOLWEIGHT>
2.246195000000000e+002

>  <code>
SP01271

>  <appearance>
liquid

>  <purity>
95%

>  <product_name>
methyl 5-(chlorosulfonyl)-2-furoate

>  <cansmi>
COC(=O)c1ccc(o1)S(=O)(=O)Cl

>  <HBA2>
5

>  <HBD>
0

>  <logP>
2.0745

>  <TPSA>
81.96

>  <MW>
224.619

$$$$

 OpenBabel02131620232D

 14 14  0  0  0  0  0  0  0  0999 V2000
   -0.4667    0.3501    0.0000 O   0  0  0  0  0  0  0  0  0  0  0  0
    0.2026    0.8325    0.0000 C   0  0  0  0  0  0  0  0  0  0  0  0
   -0.0542    1.6208    0.0000 C   0  0  0  0  0  0  0  0  0  0  0  0
   -0.8792    1.6208    0.0000 C   0  0  0  0  0  0  0  0  0  0  0  0
   -1.1360    0.8325    0.0000 C   0  0  0  0  0  0  0  0  0  0  0  0
    0.9869    0.5764    0.0000 S   0  0  0  0  0  0  0  0  0  0  0  0
    1.6008    1.1276    0.0000 Cl  0  0  0  0  0  0  0  0  0  0  0  0
   -1.9202    0.5764    0.0000 C   0  0  0  0  0  0  0  0  0  0  0  0
    0.3958   -0.0041    0.0000 O   0  0  0  0  0  0  0  0  0  0  0  0
    1.7792    0.3667    0.0000 O   0  0  0  0  0  0  0  0  0  0  0  0
   -1.3639    2.2884    0.0000 C   0  0  0  0  0  0  0  0  0  0  0  0
   -1.0280    3.0419    0.0000 O   0  0  0  0  0  0  0  0  0  0  0  0
   -2.1844    2.2025    0.0000 O   0  0  0  0  0  0  0  0  0  0  0  0
   -2.6690    2.8701    0.0000 C   0  0  0  0  0  0  0  0  0  0  0  0
  1  2  1  0  0  0  0
  2  6  1  0  0  0  0
  2  3  2  0  0  0  0
  3  4  1  0  0  0  0
  4 11  1  0  0  0  0
  4  5  2  0  0  0  0
  5  8  1  0  0  0  0
  5  1  1  0  0  0  0
  6  9  2  0  0  0  0
  6 10  2  0  0  0  0
  6  7  1  0  0  0  0
 11 12  2  0  0  0  0
 11 13  1  0  0  0  0
 13 14  1  0  0  0  0
M  END
>  <MOLFORMULA>
C7 H7 Cl O5 S

>  <MOLWEIGHT>
2.386463000000000e+002

>  <code>
SP01279

>  <appearance>
solid

>  <purity>
95%

>  <product_name>
methyl 5-(chlorosulfonyl)-2-methyl-3-furoate

>  <cansmi>
COC(=O)c1cc(oc1C)S(=O)(=O)Cl

>  <HBA2>
5

>  <HBD>
0

>  <logP>
2.3829

>  <TPSA>
81.96

>  <MW>
238.645

$$$$

 OpenBabel02131620232D

 14 14  0  0  0  0  0  0  0  0999 V2000
   -0.2834   -1.0999    0.0000 N   0  0  0  0  0  0  0  0  0  0  0  0
    0.3859   -0.6175    0.0000 C   0  0  0  0  0  0  0  0  0  0  0  0
    0.1291    0.1708    0.0000 C   0  0  0  0  0  0  0  0  0  0  0  0
   -0.6959    0.1708    0.0000 C   0  0  0  0  0  0  0  0  0  0  0  0
   -0.9527   -0.6175    0.0000 C   0  0  0  0  0  0  0  0  0  0  0  0
    1.1702   -0.8736    0.0000 S   0  0  0  0  0  0  0  0  0  0  0  0
    1.7841   -0.3224    0.0000 Cl  0  0  0  0  0  0  0  0  0  0  0  0
   -1.7369   -0.8736    0.0000 C   0  0  0  0  0  0  0  0  0  0  0  0
    0.5791   -1.4541    0.0000 O   0  0  0  0  0  0  0  0  0  0  0  0
    1.9333   -1.1916    0.0000 O   0  0  0  0  0  0  0  0  0  0  0  0
   -0.2834   -1.9249    0.0000 C   0  0  0  0  0  0  0  0  0  0  0  0
   -1.9073   -1.6808    0.0000 O   0  0  0  0  0  0  0  0  0  0  0  0
   -2.3509   -0.3225    0.0000 O   0  0  0  0  0  0  0  0  0  0  0  0
   -3.1351   -0.5786    0.0000 C   0  0  0  0  0  0  0  0  0  0  0  0
  1  2  1  0  0  0  0
  1 11  1  0  0  0  0
  2  3  2  0  0  0  0
  2  6  1  0  0  0  0
  3  4  1  0  0  0  0
  4  5  2  0  0  0  0
  5  8  1  0  0  0  0
  5  1  1  0  0  0  0
  6  7  1  0  0  0  0
  6  9  2  0  0  0  0
  6 10  2  0  0  0  0
  8 12  2  0  0  0  0
  8 13  1  0  0  0  0
 13 14  1  0  0  0  0
M  END
>  <MOLFORMULA>
C7 H8 Cl N O4 S

>  <MOLWEIGHT>
2.376622000000000e+002

>  <code>
SP01464

>  <appearance>
solid

>  <purity>
95%

>  <product_name>
methyl 5-(chlorosulfonyl)-1-methyl-1H-pyrrole-2-carboxylate

>  <cansmi>
COC(=O)c1ccc(n1C)S(=O)(=O)Cl

>  <HBA2>
5

>  <HBD>
0

>  <logP>
1.82

>  <TPSA>
73.75

>  <MW>
237.661

$$$$

 OpenBabel02131620232D

 13 14  0  0  0  0  0  0  0  0999 V2000
    5.2943   -2.6550    0.0000 C   0  0  0  0  0  0  0  0  0  0  0  0
    5.0375   -1.8667    0.0000 C   0  0  0  0  0  0  0  0  0  0  0  0
    4.2125   -1.8667    0.0000 N   0  0  0  0  0  0  0  0  0  0  0  0
    4.3723   -3.9268    0.0000 C   0  0  0  0  0  0  0  0  0  0  0  0
    4.6250   -3.1374    0.0000 N   0  0  0  0  0  0  0  0  0  0  0  0
    3.9512   -2.6537    0.0000 C   0  0  0  0  0  0  0  0  0  0  0  0
    3.2836   -3.1464    0.0000 S   0  0  0  0  0  0  0  0  0  0  0  0
    3.5471   -3.9329    0.0000 C   0  0  0  0  0  0  0  0  0  0  0  0
    5.5222   -1.1990    0.0000 Cl  0  0  0  0  0  0  0  0  0  0  0  0
    6.0785   -2.9112    0.0000 S   0  0  0  0  0  0  0  0  0  0  0  0
    6.6925   -2.3601    0.0000 Cl  0  0  0  0  0  0  0  0  0  0  0  0
    5.6583   -3.6208    0.0000 O   0  0  0  0  0  0  0  0  0  0  0  0
    6.7875   -3.3208    0.0000 O   0  0  0  0  0  0  0  0  0  0  0  0
  1 10  1  0  0  0  0
  1  2  2  0  0  0  0
  2  3  1  0  0  0  0
  2  9  1  0  0  0  0
  3  6  2  0  0  0  0
  4  5  1  0  0  0  0
  5  6  1  0  0  0  0
  5  1  1  0  0  0  0
  6  7  1  0  0  0  0
  7  8  1  0  0  0  0
  8  4  2  0  0  0  0
 10 11  1  0  0  0  0
 10 12  2  0  0  0  0
 10 13  2  0  0  0  0
M  END
>  <MOLFORMULA>
C5 H2 Cl2 N2 O2 S2

>  <MOLWEIGHT>
2.571208000000000e+002

>  <code>
SPB05853

>  <appearance>
solid

>  <purity>
97%

>  <product_name>
6-chloroimidazo[2,1-b][1,3]thiazole-5-sulfonyl chloride

>  <cansmi>
Clc1nc2n(c1S(=O)(=O)Cl)ccs2

>  <HBA2>
5

>  <HBD>
0

>  <logP>
3.0575

>  <TPSA>
88.06

>  <MW>
257.118

$$$$

 OpenBabel02131620232D

 12 12  0  0  0  0  0  0  0  0999 V2000
    2.0000    1.0083    0.0000 S   0  0  0  0  0  0  0  0  0  0  0  0
    0.6667    0.2333    0.0000 C   0  0  0  0  0  0  0  0  0  0  0  0
   -0.6625    1.0000    0.0000 C   0  0  0  0  0  0  0  0  0  0  0  0
   -1.9958    0.2333    0.0000 C   0  0  0  0  0  0  0  0  0  0  0  0
    0.9042    2.0833    0.0000 O   0  0  0  0  0  0  0  0  0  0  0  0
    3.0792    2.0833    0.0000 O   0  0  0  0  0  0  0  0  0  0  0  0
   -1.9958   -1.3042    0.0000 C   0  0  0  0  0  0  0  0  0  0  0  0
    3.3250    0.2208    0.0000 Cl  0  0  0  0  0  0  0  0  0  0  0  0
    0.6667   -1.3042    0.0000 C   0  0  0  0  0  0  0  0  0  0  0  0
   -0.6625   -2.0750    0.0000 C   0  0  0  0  0  0  0  0  0  0  0  0
   -3.3333    1.0083    0.0000 F   0  0  0  0  0  0  0  0  0  0  0  0
   -3.3333   -2.0750    0.0000 F   0  0  0  0  0  0  0  0  0  0  0  0
  2  1  1  0  0  0  0
  3  2  2  0  0  0  0
  4  3  1  0  0  0  0
  5  1  2  0  0  0  0
  6  1  2  0  0  0  0
  7 10  1  0  0  0  0
  7  4  2  0  0  0  0
  8  1  1  0  0  0  0
  9  2  1  0  0  0  0
 10  9  2  0  0  0  0
 11  4  1  0  0  0  0
 12  7  1  0  0  0  0
M  END
>  <MOLFORMULA>
C6 H3 Cl F2 O2 S

>  <MOLWEIGHT>
2.126027000000000e+002

>  <code>
SPB05941

>  <appearance>
liquid

>  <purity>
97%

>  <product_name>
3,4-difluorobenzene-1-sulfonyl chloride

>  <cansmi>
Fc1ccc(cc1F)S(=O)(=O)Cl

>  <HBA2>
2

>  <HBD>
0

>  <logP>
2.9731

>  <TPSA>
42.52

>  <MW>
212.602

$$$$

 OpenBabel02131620232D

 11 11  0  0  0  0  0  0  0  0999 V2000
    1.3375    1.0000    0.0000 S   0  0  0  0  0  0  0  0  0  0  0  0
    0.0042    0.2333    0.0000 C   0  0  0  0  0  0  0  0  0  0  0  0
    0.2417    2.0833    0.0000 O   0  0  0  0  0  0  0  0  0  0  0  0
    2.4125    2.0833    0.0000 O   0  0  0  0  0  0  0  0  0  0  0  0
    0.0042   -1.3042    0.0000 C   0  0  0  0  0  0  0  0  0  0  0  0
    2.6542    0.2208    0.0000 Cl  0  0  0  0  0  0  0  0  0  0  0  0
    1.3375   -2.0750    0.0000 I   0  0  0  0  0  0  0  0  0  0  0  0
   -1.3333    1.0000    0.0000 C   0  0  0  0  0  0  0  0  0  0  0  0
   -1.3333   -2.0750    0.0000 C   0  0  0  0  0  0  0  0  0  0  0  0
   -2.6625    0.2333    0.0000 C   0  0  0  0  0  0  0  0  0  0  0  0
   -2.6625   -1.3042    0.0000 C   0  0  0  0  0  0  0  0  0  0  0  0
  2  1  1  0  0  0  0
  3  1  2  0  0  0  0
  4  1  2  0  0  0  0
  5  2  1  0  0  0  0
  6  1  1  0  0  0  0
  7  5  1  0  0  0  0
  8  2  2  0  0  0  0
  9  5  2  0  0  0  0
 10  8  1  0  0  0  0
 11 10  2  0  0  0  0
 11  9  1  0  0  0  0
M  END
>  <MOLFORMULA>
C6 H4 Cl I O2 S

>  <MOLWEIGHT>
3.025146000000000e+002

>  <code>
SPB07738

>  <appearance>
solid

>  <purity>
TECH

>  <product_name>
2-iodobenzene-1-sulfonyl chloride

>  <cansmi>
Ic1ccccc1S(=O)(=O)Cl

>  <HBA2>
2

>  <HBD>
0

>  <logP>
3.2995

>  <TPSA>
42.52

>  <MW>
302.517

$$$$

 OpenBabel02131620232D

 15 16  0  0  0  0  0  0  0  0999 V2000
   -2.0042   -1.5666    0.0000 S   0  0  0  0  0  0  0  0  0  0  0  0
   -1.3349   -1.0842    0.0000 C   0  0  0  0  0  0  0  0  0  0  0  0
   -1.5917   -0.2959    0.0000 C   0  0  0  0  0  0  0  0  0  0  0  0
   -2.4167   -0.2959    0.0000 C   0  0  0  0  0  0  0  0  0  0  0  0
   -2.6735   -1.0842    0.0000 C   0  0  0  0  0  0  0  0  0  0  0  0
   -3.4577   -1.3403    0.0000 C   0  0  0  0  0  0  0  0  0  0  0  0
   -4.1281   -0.8528    0.0000 N   0  0  0  0  0  0  0  0  0  0  0  0
   -4.7948   -1.3388    0.0000 C   0  0  0  0  0  0  0  0  0  0  0  0
   -4.5387   -2.1231    0.0000 S   0  0  0  0  0  0  0  0  0  0  0  0
   -3.7137   -2.1217    0.0000 N   0  0  0  0  0  0  0  0  0  0  0  0
   -5.5798   -1.0850    0.0000 Cl  0  0  0  0  0  0  0  0  0  0  0  0
   -0.5506   -1.3403    0.0000 S   0  0  0  0  0  0  0  0  0  0  0  0
    0.0633   -0.7891    0.0000 Cl  0  0  0  0  0  0  0  0  0  0  0  0
   -0.9708   -2.0500    0.0000 O   0  0  0  0  0  0  0  0  0  0  0  0
    0.2417   -1.5500    0.0000 O   0  0  0  0  0  0  0  0  0  0  0  0
  1  2  1  0  0  0  0
  2  3  2  0  0  0  0
  2 12  1  0  0  0  0
  3  4  1  0  0  0  0
  4  5  2  0  0  0  0
  5  1  1  0  0  0  0
  5  6  1  0  0  0  0
  6  7  1  0  0  0  0
  7  8  2  0  0  0  0
  8  9  1  0  0  0  0
  8 11  1  0  0  0  0
  9 10  1  0  0  0  0
 10  6  2  0  0  0  0
 12 13  1  0  0  0  0
 12 14  2  0  0  0  0
 12 15  2  0  0  0  0
M  END
>  <MOLFORMULA>
C6 H2 Cl2 N2 O2 S3

>  <MOLWEIGHT>
3.011978000000000e+002

>  <code>
SPB08412

>  <appearance>
solid

>  <purity>
95%

>  <product_name>
5-(5-chloro-1,2,4-thiadiazol-3-yl)thiophene-2-sulfonyl chloride

>  <cansmi>
Clc1snc(n1)c1ccc(s1)S(=O)(=O)Cl

>  <HBA2>
6

>  <HBD>
0

>  <logP>
3.9283

>  <TPSA>
124.78

>  <MW>
301.193

$$$$

 OpenBabel02131620232D

 15 16  0  0  0  0  0  0  0  0999 V2000
   -4.1223   -2.8500    0.0000 C   0  0  0  0  0  0  0  0  0  0  0  0
   -4.1234   -3.6773    0.0000 C   0  0  0  0  0  0  0  0  0  0  0  0
   -3.4086   -4.0902    0.0000 C   0  0  0  0  0  0  0  0  0  0  0  0
   -3.4104   -2.4372    0.0000 C   0  0  0  0  0  0  0  0  0  0  0  0
   -2.6950   -2.8463    0.0000 C   0  0  0  0  0  0  0  0  0  0  0  0
   -2.6943   -3.6732    0.0000 C   0  0  0  0  0  0  0  0  0  0  0  0
   -1.9790   -4.0841    0.0000 C   0  0  0  0  0  0  0  0  0  0  0  0
   -1.2639   -3.6694    0.0000 C   0  0  0  0  0  0  0  0  0  0  0  0
   -1.2687   -2.8394    0.0000 C   0  0  0  0  0  0  0  0  0  0  0  0
   -1.9846   -2.4322    0.0000 C   0  0  0  0  0  0  0  0  0  0  0  0
   -1.9772   -4.9091    0.0000 C   0  0  0  0  0  0  0  0  0  0  0  0
   -1.9890   -1.6072    0.0000 S   0  0  0  0  0  0  0  0  0  0  0  0
   -1.2767   -1.1909    0.0000 Cl  0  0  0  0  0  0  0  0  0  0  0  0
   -2.7083   -2.0125    0.0000 O   0  0  0  0  0  0  0  0  0  0  0  0
   -2.4083   -0.8875    0.0000 O   0  0  0  0  0  0  0  0  0  0  0  0
  1  2  2  0  0  0  0
  2  3  1  0  0  0  0
  3  6  2  0  0  0  0
  4  1  1  0  0  0  0
  5  4  2  0  0  0  0
  5  6  1  0  0  0  0
  6  7  1  0  0  0  0
  7  8  2  0  0  0  0
  7 11  1  0  0  0  0
  8  9  1  0  0  0  0
  9 10  2  0  0  0  0
 10  5  1  0  0  0  0
 10 12  1  0  0  0  0
 12 13  1  0  0  0  0
 12 14  2  0  0  0  0
 12 15  2  0  0  0  0
M  END
>  <MOLFORMULA>
C11 H9 Cl O2 S

>  <MOLWEIGHT>
2.407091000000000e+002

>  <code>
SS00053

>  <appearance>
solid

>  <purity>
97%

>  <product_name>
4-methyl-1-naphthalenesulfonyl chloride

>  <cansmi>
Cc1ccc(c2c1cccc2)S(=O)(=O)Cl

>  <HBA2>
2

>  <HBD>
0

>  <logP>
4.1565

>  <TPSA>
42.52

>  <MW>
240.706

$$$$

 OpenBabel02131620232D

 14 14  0  0  0  0  0  0  0  0999 V2000
    2.7542    1.8000    0.0000 S   0  0  0  0  0  0  0  0  0  0  0  0
   -2.5833   -1.2792    0.0000 C   0  0  0  0  0  0  0  0  0  0  0  0
    1.4167    1.0333    0.0000 C   0  0  0  0  0  0  0  0  0  0  0  0
    1.6625    2.8750    0.0000 O   0  0  0  0  0  0  0  0  0  0  0  0
    3.8292    2.8750    0.0000 O   0  0  0  0  0  0  0  0  0  0  0  0
   -1.2458   -0.5125    0.0000 C   0  0  0  0  0  0  0  0  0  0  0  0
    4.0750    1.0208    0.0000 Cl  0  0  0  0  0  0  0  0  0  0  0  0
    1.4167   -0.5125    0.0000 C   0  0  0  0  0  0  0  0  0  0  0  0
    0.0875    1.7958    0.0000 C   0  0  0  0  0  0  0  0  0  0  0  0
    0.0875   -1.2792    0.0000 C   0  0  0  0  0  0  0  0  0  0  0  0
   -1.2458    1.0333    0.0000 C   0  0  0  0  0  0  0  0  0  0  0  0
   -3.7875   -1.9875    0.0000 F   0  0  0  0  0  0  0  0  0  0  0  0
   -4.0833   -0.7125    0.0000 F   0  0  0  0  0  0  0  0  0  0  0  0
   -2.8333   -2.8667    0.0000 F   0  0  0  0  0  0  0  0  0  0  0  0
  2  6  1  0  0  0  0
  3  1  1  0  0  0  0
  4  1  2  0  0  0  0
  5  1  2  0  0  0  0
  6 11  2  0  0  0  0
  6 10  1  0  0  0  0
  7  1  1  0  0  0  0
  8  3  1  0  0  0  0
  9  3  2  0  0  0  0
 10  8  2  0  0  0  0
 11  9  1  0  0  0  0
 12  2  1  0  0  0  0
 13  2  1  0  0  0  0
 14  2  1  0  0  0  0
M  END
>  <MOLFORMULA>
C7 H4 Cl F3 O2 S

>  <MOLWEIGHT>
2.446196000000000e+002

>  <code>
TL00175

>  <appearance>
solid

>  <purity>
97%

>  <product_name>
4-(trifluoromethyl)benzene-1-sulfonyl chloride

>  <cansmi>
FC(c1ccc(cc1)S(=O)(=O)Cl)(F)F

>  <HBA2>
2

>  <HBD>
0

>  <logP>
3.7137

>  <TPSA>
42.52

>  <MW>
244.619

$$$$

 OpenBabel02131620232D

 12 12  0  0  0  0  0  0  0  0999 V2000
    2.0000    1.0000    0.0000 S   0  0  0  0  0  0  0  0  0  0  0  0
    0.6667    0.2333    0.0000 C   0  0  0  0  0  0  0  0  0  0  0  0
   -0.6625    1.0000    0.0000 C   0  0  0  0  0  0  0  0  0  0  0  0
    3.0750    2.0833    0.0000 O   0  0  0  0  0  0  0  0  0  0  0  0
    0.9042    2.0833    0.0000 O   0  0  0  0  0  0  0  0  0  0  0  0
    0.6667   -1.3042    0.0000 C   0  0  0  0  0  0  0  0  0  0  0  0
    3.3167    0.2208    0.0000 Cl  0  0  0  0  0  0  0  0  0  0  0  0
   -0.6625   -2.0750    0.0000 C   0  0  0  0  0  0  0  0  0  0  0  0
   -1.9958    0.2208    0.0000 C   0  0  0  0  0  0  0  0  0  0  0  0
   -2.0000   -1.3042    0.0000 C   0  0  0  0  0  0  0  0  0  0  0  0
   -3.3250    0.9875    0.0000 F   0  0  0  0  0  0  0  0  0  0  0  0
    2.0042   -2.0750    0.0000 C   0  0  0  0  0  0  0  0  0  0  0  0
  2  1  1  0  0  0  0
  3  2  2  0  0  0  0
  4  1  2  0  0  0  0
  5  1  2  0  0  0  0
  6  2  1  0  0  0  0
  7  1  1  0  0  0  0
  8  6  2  0  0  0  0
  9  3  1  0  0  0  0
 10  8  1  0  0  0  0
 10  9  2  0  0  0  0
 11  9  1  0  0  0  0
 12  6  1  0  0  0  0
M  END
>  <MOLFORMULA>
C7 H6 Cl F O2 S

>  <MOLWEIGHT>
2.086394000000000e+002

>  <code>
TL00317

>  <appearance>
liquid

>  <purity>
97%

>  <product_name>
5-fluoro-2-methylbenzene-1-sulfonyl chloride

>  <cansmi>
Fc1ccc(c(c1)S(=O)(=O)Cl)C

>  <HBA2>
2

>  <HBD>
0

>  <logP>
3.1424

>  <TPSA>
42.52

>  <MW>
208.638

$$$$

 OpenBabel02131620232D

 12 12  0  0  0  0  0  0  0  0999 V2000
    4.2125   -1.4792    0.0000 S   0  0  0  0  0  0  0  0  0  0  0  0
    3.6917   -1.7792    0.0000 C   0  0  0  0  0  0  0  0  0  0  0  0
    3.6917   -2.3792    0.0000 C   0  0  0  0  0  0  0  0  0  0  0  0
    3.1667   -1.4792    0.0000 C   0  0  0  0  0  0  0  0  0  0  0  0
    3.1667   -2.6875    0.0000 C   0  0  0  0  0  0  0  0  0  0  0  0
    3.7875   -1.0542    0.0000 O   0  0  0  0  0  0  0  0  0  0  0  0
    4.6333   -1.0542    0.0000 O   0  0  0  0  0  0  0  0  0  0  0  0
    4.7292   -1.7875    0.0000 Cl  0  0  0  0  0  0  0  0  0  0  0  0
    2.6500   -2.3792    0.0000 C   0  0  0  0  0  0  0  0  0  0  0  0
    4.2125   -2.6792    0.0000 Cl  0  0  0  0  0  0  0  0  0  0  0  0
    2.6500   -1.7875    0.0000 C   0  0  0  0  0  0  0  0  0  0  0  0
    2.1250   -2.6833    0.0000 F   0  0  0  0  0  0  0  0  0  0  0  0
  2  1  1  0  0  0  0
  3  2  1  0  0  0  0
  4  2  2  0  0  0  0
  5  3  2  0  0  0  0
  5  9  1  0  0  0  0
  6  1  2  0  0  0  0
  7  1  2  0  0  0  0
  8  1  1  0  0  0  0
  9 11  2  0  0  0  0
 10  3  1  0  0  0  0
 11  4  1  0  0  0  0
 12  9  1  0  0  0  0
M  END
>  <MOLFORMULA>
C6 H3 Cl2 F O2 S

>  <MOLWEIGHT>
2.290577000000000e+002

>  <code>
TL00318

>  <appearance>
liquid

>  <purity>
97%

>  <product_name>
2-chloro-4-fluorobenzene-1-sulfonyl chloride

>  <cansmi>
Fc1ccc(c(c1)Cl)S(=O)(=O)Cl

>  <HBA2>
2

>  <HBD>
0

>  <logP>
3.4874

>  <TPSA>
42.52

>  <MW>
229.056

$$$$

 OpenBabel02131620232D

 15 15  0  0  0  0  0  0  0  0999 V2000
    2.7542    0.7583    0.0000 S   0  0  0  0  0  0  0  0  0  0  0  0
    1.4167   -0.0125    0.0000 C   0  0  0  0  0  0  0  0  0  0  0  0
   -2.5833    0.7458    0.0000 C   0  0  0  0  0  0  0  0  0  0  0  0
    0.0875    0.7583    0.0000 C   0  0  0  0  0  0  0  0  0  0  0  0
   -1.2458   -0.0250    0.0000 C   0  0  0  0  0  0  0  0  0  0  0  0
    1.4167   -1.5500    0.0000 C   0  0  0  0  0  0  0  0  0  0  0  0
    3.8292    1.8333    0.0000 O   0  0  0  0  0  0  0  0  0  0  0  0
    1.6625    1.8333    0.0000 O   0  0  0  0  0  0  0  0  0  0  0  0
    4.0750   -0.0250    0.0000 Cl  0  0  0  0  0  0  0  0  0  0  0  0
   -1.2458   -1.5500    0.0000 C   0  0  0  0  0  0  0  0  0  0  0  0
    0.0875   -2.3167    0.0000 C   0  0  0  0  0  0  0  0  0  0  0  0
   -3.7958    1.4375    0.0000 F   0  0  0  0  0  0  0  0  0  0  0  0
   -2.8375    2.3292    0.0000 F   0  0  0  0  0  0  0  0  0  0  0  0
   -4.0833    0.1708    0.0000 F   0  0  0  0  0  0  0  0  0  0  0  0
    2.7542   -2.3167    0.0000 Cl  0  0  0  0  0  0  0  0  0  0  0  0
  2  1  1  0  0  0  0
  3  5  1  0  0  0  0
  4  2  2  0  0  0  0
  5  4  1  0  0  0  0
  6  2  1  0  0  0  0
  7  1  2  0  0  0  0
  8  1  2  0  0  0  0
  9  1  1  0  0  0  0
 10 11  1  0  0  0  0
 10  5  2  0  0  0  0
 11  6  2  0  0  0  0
 12  3  1  0  0  0  0
 13  3  1  0  0  0  0
 14  3  1  0  0  0  0
 15  6  1  0  0  0  0
M  END
>  <MOLFORMULA>
C7 H3 Cl2 F3 O2 S

>  <MOLWEIGHT>
2.790647000000000e+002

>  <code>
TL00339

>  <appearance>
liquid

>  <purity>
97%

>  <product_name>
2-chloro-5-(trifluoromethyl)benzene-1-sulfonyl chloride

>  <cansmi>
Clc1ccc(cc1S(=O)(=O)Cl)C(F)(F)F

>  <HBA2>
2

>  <HBD>
0

>  <logP>
4.3671

>  <TPSA>
42.52

>  <MW>
279.064

$$$$

 OpenBabel02131620232D

 12 12  0  0  0  0  0  0  0  0999 V2000
    1.3375    0.7708    0.0000 S   0  0  0  0  0  0  0  0  0  0  0  0
    0.0042    0.0083    0.0000 C   0  0  0  0  0  0  0  0  0  0  0  0
    0.2417    1.8500    0.0000 O   0  0  0  0  0  0  0  0  0  0  0  0
    2.4125    1.8500    0.0000 O   0  0  0  0  0  0  0  0  0  0  0  0
   -1.3333    0.7708    0.0000 C   0  0  0  0  0  0  0  0  0  0  0  0
    0.0042   -1.5375    0.0000 C   0  0  0  0  0  0  0  0  0  0  0  0
    2.6542   -0.0042    0.0000 Cl  0  0  0  0  0  0  0  0  0  0  0  0
   -1.3333    2.3083    0.0000 Cl  0  0  0  0  0  0  0  0  0  0  0  0
    1.3375   -2.3042    0.0000 Cl  0  0  0  0  0  0  0  0  0  0  0  0
   -2.6625   -1.5375    0.0000 C   0  0  0  0  0  0  0  0  0  0  0  0
   -2.6583   -0.0042    0.0000 C   0  0  0  0  0  0  0  0  0  0  0  0
   -1.3333   -2.3042    0.0000 C   0  0  0  0  0  0  0  0  0  0  0  0
  2  1  1  0  0  0  0
  3  1  2  0  0  0  0
  4  1  2  0  0  0  0
  5  2  2  0  0  0  0
  6  2  1  0  0  0  0
  7  1  1  0  0  0  0
  8  5  1  0  0  0  0
  9  6  1  0  0  0  0
 10 12  1  0  0  0  0
 10 11  2  0  0  0  0
 11  5  1  0  0  0  0
 12  6  2  0  0  0  0
M  END
>  <MOLFORMULA>
C6 H3 Cl3 O2 S

>  <MOLWEIGHT>
2.455127000000000e+002

>  <code>
TL00344

>  <appearance>
solid

>  <purity>
95%

>  <product_name>
2,6-dichlorobenzene-1-sulfonyl chloride

>  <cansmi>
Clc1cccc(c1S(=O)(=O)Cl)Cl

>  <HBA2>
2

>  <HBD>
0

>  <logP>
4.0017

>  <TPSA>
42.52

>  <MW>
245.511

$$$$

 OpenBabel02131620232D

 11 11  0  0  0  0  0  0  0  0999 V2000
    2.0000    1.0000    0.0000 S   0  0  0  0  0  0  0  0  0  0  0  0
    0.6667    0.2333    0.0000 C   0  0  0  0  0  0  0  0  0  0  0  0
    0.9042    2.0833    0.0000 O   0  0  0  0  0  0  0  0  0  0  0  0
    3.0750    2.0833    0.0000 O   0  0  0  0  0  0  0  0  0  0  0  0
   -0.6625    1.0000    0.0000 C   0  0  0  0  0  0  0  0  0  0  0  0
    3.3167    0.2208    0.0000 Cl  0  0  0  0  0  0  0  0  0  0  0  0
   -1.9958    0.2208    0.0000 C   0  0  0  0  0  0  0  0  0  0  0  0
   -3.3250    0.9875    0.0000 Br  0  0  0  0  0  0  0  0  0  0  0  0
    0.6667   -1.3042    0.0000 C   0  0  0  0  0  0  0  0  0  0  0  0
   -0.6625   -2.0750    0.0000 C   0  0  0  0  0  0  0  0  0  0  0  0
   -1.9958   -1.3042    0.0000 C   0  0  0  0  0  0  0  0  0  0  0  0
  2  1  1  0  0  0  0
  3  1  2  0  0  0  0
  4  1  2  0  0  0  0
  5  2  2  0  0  0  0
  6  1  1  0  0  0  0
  7  5  1  0  0  0  0
  8  7  1  0  0  0  0
  9  2  1  0  0  0  0
 10  9  2  0  0  0  0
 11 10  1  0  0  0  0
 11  7  2  0  0  0  0
M  END
>  <MOLFORMULA>
C6 H4 Br Cl O2 S

>  <MOLWEIGHT>
2.555186000000000e+002

>  <code>
TL00352

>  <appearance>
solid

>  <purity>
97%

>  <product_name>
3-bromobenzene-1-sulfonyl chloride

>  <cansmi>
Brc1cccc(c1)S(=O)(=O)Cl

>  <HBA2>
2

>  <HBD>
0

>  <logP>
3.4574

>  <TPSA>
42.52

>  <MW>
255.517

$$$$

 OpenBabel02131620232D

 15 15  0  0  0  0  0  0  0  0999 V2000
    2.0917   -0.4042    0.0000 S   0  0  0  0  0  0  0  0  0  0  0  0
    0.7625   -1.1750    0.0000 C   0  0  0  0  0  0  0  0  0  0  0  0
   -1.9125    1.8958    0.0000 C   0  0  0  0  0  0  0  0  0  0  0  0
   -0.5708   -0.4042    0.0000 C   0  0  0  0  0  0  0  0  0  0  0  0
   -0.5750    1.1250    0.0000 O   0  0  0  0  0  0  0  0  0  0  0  0
    3.1667    0.6708    0.0000 O   0  0  0  0  0  0  0  0  0  0  0  0
    1.0000    0.6708    0.0000 O   0  0  0  0  0  0  0  0  0  0  0  0
    3.4125   -1.1875    0.0000 Cl  0  0  0  0  0  0  0  0  0  0  0  0
   -3.1333    2.5958    0.0000 F   0  0  0  0  0  0  0  0  0  0  0  0
   -2.1750    3.4875    0.0000 F   0  0  0  0  0  0  0  0  0  0  0  0
   -3.4208    1.3208    0.0000 F   0  0  0  0  0  0  0  0  0  0  0  0
    0.7625   -2.7167    0.0000 C   0  0  0  0  0  0  0  0  0  0  0  0
   -1.8958   -1.1875    0.0000 C   0  0  0  0  0  0  0  0  0  0  0  0
   -0.5708   -3.4792    0.0000 C   0  0  0  0  0  0  0  0  0  0  0  0
   -1.9083   -2.7167    0.0000 C   0  0  0  0  0  0  0  0  0  0  0  0
  2  1  1  0  0  0  0
  3  5  1  0  0  0  0
  4  2  2  0  0  0  0
  5  4  1  0  0  0  0
  6  1  2  0  0  0  0
  7  1  2  0  0  0  0
  8  1  1  0  0  0  0
  9  3  1  0  0  0  0
 10  3  1  0  0  0  0
 11  3  1  0  0  0  0
 12  2  1  0  0  0  0
 13  4  1  0  0  0  0
 14 12  2  0  0  0  0
 15 14  1  0  0  0  0
 15 13  2  0  0  0  0
M  END
>  <MOLFORMULA>
C7 H4 Cl F3 O3 S

>  <MOLWEIGHT>
2.606186000000000e+002

>  <code>
TL00357

>  <appearance>
solid

>  <purity>
97%

>  <product_name>
2-(trifluoromethoxy)benzene-1-sulfonyl chloride

>  <cansmi>
FC(Oc1ccccc1S(=O)(=O)Cl)(F)F

>  <HBA2>
3

>  <HBD>
0

>  <logP>
3.5935

>  <TPSA>
51.75

>  <MW>
260.618

$$$$

 OpenBabel02131620232D

 12 12  0  0  0  0  0  0  0  0999 V2000
    2.6667    1.3875    0.0000 S   0  0  0  0  0  0  0  0  0  0  0  0
    1.3292    0.6208    0.0000 C   0  0  0  0  0  0  0  0  0  0  0  0
   -3.9958   -2.4625    0.0000 N   0  0  0  0  0  0  0  0  0  0  0  0
    3.7417    2.4708    0.0000 O   0  0  0  0  0  0  0  0  0  0  0  0
    1.5750    2.4708    0.0000 O   0  0  0  0  0  0  0  0  0  0  0  0
   -2.6583   -1.6917    0.0000 C   0  0  0  0  0  0  0  0  0  0  0  0
    3.9875    0.6083    0.0000 Cl  0  0  0  0  0  0  0  0  0  0  0  0
    0.0042    1.3875    0.0000 C   0  0  0  0  0  0  0  0  0  0  0  0
    1.3375   -0.9250    0.0000 C   0  0  0  0  0  0  0  0  0  0  0  0
   -1.3333   -0.9250    0.0000 C   0  0  0  0  0  0  0  0  0  0  0  0
   -1.3250    0.6083    0.0000 C   0  0  0  0  0  0  0  0  0  0  0  0
    0.0042   -1.6875    0.0000 C   0  0  0  0  0  0  0  0  0  0  0  0
  2  1  1  0  0  0  0
  3  6  3  0  0  0  0
  4  1  2  0  0  0  0
  5  1  2  0  0  0  0
  6 10  1  0  0  0  0
  7  1  1  0  0  0  0
  8  2  2  0  0  0  0
  9  2  1  0  0  0  0
 10 12  1  0  0  0  0
 10 11  2  0  0  0  0
 11  8  1  0  0  0  0
 12  9  2  0  0  0  0
M  END
>  <MOLFORMULA>
C7 H4 Cl N O2 S

>  <MOLWEIGHT>
2.016326000000000e+002

>  <code>
TL00421

>  <appearance>
solid

>  <purity>
97%

>  <product_name>
4-cyanobenzene-1-sulfonyl chloride

>  <cansmi>
N#Cc1ccc(cc1)S(=O)(=O)Cl

>  <HBA2>
3

>  <HBD>
0

>  <logP>
2.56658

>  <TPSA>
66.31

>  <MW>
201.63

$$$$

 OpenBabel02131620232D

 13 13  0  0  0  0  0  0  0  0999 V2000
    2.0042    0.7750    0.0000 S   0  0  0  0  0  0  0  0  0  0  0  0
    0.6667    0.0000    0.0000 C   0  0  0  0  0  0  0  0  0  0  0  0
   -0.6625    0.7708    0.0000 C   0  0  0  0  0  0  0  0  0  0  0  0
   -1.9958   -0.0042    0.0000 C   0  0  0  0  0  0  0  0  0  0  0  0
    0.6750   -1.5375    0.0000 C   0  0  0  0  0  0  0  0  0  0  0  0
    0.9125    1.8500    0.0000 O   0  0  0  0  0  0  0  0  0  0  0  0
    3.0792    1.8500    0.0000 O   0  0  0  0  0  0  0  0  0  0  0  0
   -1.9958   -1.5375    0.0000 C   0  0  0  0  0  0  0  0  0  0  0  0
    3.3250   -0.0042    0.0000 Cl  0  0  0  0  0  0  0  0  0  0  0  0
   -0.6625   -2.3042    0.0000 C   0  0  0  0  0  0  0  0  0  0  0  0
   -0.6708    2.3125    0.0000 Cl  0  0  0  0  0  0  0  0  0  0  0  0
   -3.3250    0.7583    0.0000 Cl  0  0  0  0  0  0  0  0  0  0  0  0
   -3.3333   -2.3042    0.0000 Cl  0  0  0  0  0  0  0  0  0  0  0  0
  2  1  1  0  0  0  0
  3  2  2  0  0  0  0
  4  3  1  0  0  0  0
  5  2  1  0  0  0  0
  6  1  2  0  0  0  0
  7  1  2  0  0  0  0
  8 10  1  0  0  0  0
  8  4  2  0  0  0  0
  9  1  1  0  0  0  0
 10  5  2  0  0  0  0
 11  3  1  0  0  0  0
 12  4  1  0  0  0  0
 13  8  1  0  0  0  0
M  END
>  <MOLFORMULA>
C6 H2 Cl4 O2 S

>  <MOLWEIGHT>
2.799578000000000e+002

>  <code>
TL00422

>  <appearance>
solid

>  <purity>
97%

>  <product_name>
2,3,4-trichlorobenzene-1-sulfonyl chloride

>  <cansmi>
Clc1ccc(c(c1Cl)Cl)S(=O)(=O)Cl

>  <HBA2>
2

>  <HBD>
0

>  <logP>
4.6551

>  <TPSA>
42.52

>  <MW>
279.956

$$$$

 OpenBabel02131620232D

 12 12  0  0  0  0  0  0  0  0999 V2000
    1.3292    1.3833    0.0000 S   0  0  0  0  0  0  0  0  0  0  0  0
   -0.0083    0.6125    0.0000 C   0  0  0  0  0  0  0  0  0  0  0  0
    2.6667   -2.4542    0.0000 N   0  0  0  0  0  0  0  0  0  0  0  0
    1.3292   -1.6875    0.0000 C   0  0  0  0  0  0  0  0  0  0  0  0
    0.0000   -0.9292    0.0000 C   0  0  0  0  0  0  0  0  0  0  0  0
    0.2375    2.4625    0.0000 O   0  0  0  0  0  0  0  0  0  0  0  0
    2.4042    2.4625    0.0000 O   0  0  0  0  0  0  0  0  0  0  0  0
    2.6542    0.6000    0.0000 Cl  0  0  0  0  0  0  0  0  0  0  0  0
   -1.3375    1.3833    0.0000 C   0  0  0  0  0  0  0  0  0  0  0  0
   -1.3375   -1.6917    0.0000 C   0  0  0  0  0  0  0  0  0  0  0  0
   -2.6708    0.6000    0.0000 C   0  0  0  0  0  0  0  0  0  0  0  0
   -2.6708   -0.9292    0.0000 C   0  0  0  0  0  0  0  0  0  0  0  0
  2  1  1  0  0  0  0
  3  4  3  0  0  0  0
  4  5  1  0  0  0  0
  5  2  1  0  0  0  0
  6  1  2  0  0  0  0
  7  1  2  0  0  0  0
  8  1  1  0  0  0  0
  9  2  2  0  0  0  0
 10  5  2  0  0  0  0
 11  9  1  0  0  0  0
 12 11  2  0  0  0  0
 12 10  1  0  0  0  0
M  END
>  <MOLFORMULA>
C7 H4 Cl N O2 S

>  <MOLWEIGHT>
2.016326000000000e+002

>  <code>
TL00431

>  <appearance>
solid

>  <purity>
95%

>  <product_name>
2-cyanobenzene-1-sulfonyl chloride

>  <cansmi>
N#Cc1ccccc1S(=O)(=O)Cl

>  <HBA2>
3

>  <HBD>
0

>  <logP>
2.56658

>  <TPSA>
66.31

>  <MW>
201.63

$$$$

 OpenBabel02131620232D

 15 15  0  0  0  0  0  0  0  0999 V2000
    4.6667    1.0000    0.0000 S   0  0  0  0  0  0  0  0  0  0  0  0
    3.3292    0.2333    0.0000 C   0  0  0  0  0  0  0  0  0  0  0  0
    3.5667    2.0833    0.0000 O   0  0  0  0  0  0  0  0  0  0  0  0
    5.7417    2.0833    0.0000 O   0  0  0  0  0  0  0  0  0  0  0  0
    5.9875    0.2208    0.0000 Cl  0  0  0  0  0  0  0  0  0  0  0  0
    2.0042    1.0000    0.0000 C   0  0  0  0  0  0  0  0  0  0  0  0
    3.3292   -1.3042    0.0000 C   0  0  0  0  0  0  0  0  0  0  0  0
    0.6667   -1.3042    0.0000 C   0  0  0  0  0  0  0  0  0  0  0  0
    0.6750    0.2208    0.0000 C   0  0  0  0  0  0  0  0  0  0  0  0
    2.0042   -2.0750    0.0000 C   0  0  0  0  0  0  0  0  0  0  0  0
   -0.6625   -2.0750    0.0000 O   0  0  0  0  0  0  0  0  0  0  0  0
   -1.9958   -1.3000    0.0000 C   0  0  0  0  0  0  0  0  0  0  0  0
   -3.3333   -2.0667    0.0000 C   0  0  0  0  0  0  0  0  0  0  0  0
   -4.6625   -1.3000    0.0000 C   0  0  0  0  0  0  0  0  0  0  0  0
   -5.9958   -2.0667    0.0000 C   0  0  0  0  0  0  0  0  0  0  0  0
  2  1  1  0  0  0  0
  3  1  2  0  0  0  0
  4  1  2  0  0  0  0
  5  1  1  0  0  0  0
  6  2  2  0  0  0  0
  7  2  1  0  0  0  0
  8 10  1  0  0  0  0
  8  9  2  0  0  0  0
  9  6  1  0  0  0  0
 10  7  2  0  0  0  0
 11  8  1  0  0  0  0
 12 11  1  0  0  0  0
 13 12  1  0  0  0  0
 14 13  1  0  0  0  0
 15 14  1  0  0  0  0
M  END
>  <MOLFORMULA>
C10 H13 Cl O3 S

>  <MOLWEIGHT>
2.487287000000000e+002

>  <code>
TL00441

>  <appearance>
liquid

>  <purity>
97%

>  <product_name>
4-butoxybenzene-1-sulfonyl chloride

>  <cansmi>
CCCCOc1ccc(cc1)S(=O)(=O)Cl

>  <HBA2>
3

>  <HBD>
0

>  <logP>
3.8738

>  <TPSA>
51.75

>  <MW>
248.726

$$$$

 OpenBabel02131620232D

 12 12  0  0  0  0  0  0  0  0999 V2000
    1.3375    1.7708    0.0000 S   0  0  0  0  0  0  0  0  0  0  0  0
    0.0042    1.0000    0.0000 C   0  0  0  0  0  0  0  0  0  0  0  0
    0.0042   -0.5375    0.0000 C   0  0  0  0  0  0  0  0  0  0  0  0
    0.2417    2.8500    0.0000 O   0  0  0  0  0  0  0  0  0  0  0  0
    2.4125    2.8500    0.0000 O   0  0  0  0  0  0  0  0  0  0  0  0
   -1.3333   -1.3042    0.0000 C   0  0  0  0  0  0  0  0  0  0  0  0
    2.6542    0.9958    0.0000 Cl  0  0  0  0  0  0  0  0  0  0  0  0
   -1.3333   -2.8417    0.0000 Cl  0  0  0  0  0  0  0  0  0  0  0  0
   -1.3333    1.7708    0.0000 C   0  0  0  0  0  0  0  0  0  0  0  0
    1.3375   -1.3042    0.0000 C   0  0  0  0  0  0  0  0  0  0  0  0
   -2.6583    0.9958    0.0000 C   0  0  0  0  0  0  0  0  0  0  0  0
   -2.6625   -0.5375    0.0000 C   0  0  0  0  0  0  0  0  0  0  0  0
  2  1  1  0  0  0  0
  3  2  1  0  0  0  0
  4  1  2  0  0  0  0
  5  1  2  0  0  0  0
  6  3  2  0  0  0  0
  7  1  1  0  0  0  0
  8  6  1  0  0  0  0
  9  2  2  0  0  0  0
 10  3  1  0  0  0  0
 11  9  1  0  0  0  0
 12 11  2  0  0  0  0
 12  6  1  0  0  0  0
M  END
>  <MOLFORMULA>
C7 H6 Cl2 O2 S

>  <MOLWEIGHT>
2.250944000000000e+002

>  <code>
TL00453

>  <appearance>
solid

>  <purity>
95%

>  <product_name>
3-chloro-2-methylbenzene-1-sulfonyl chloride

>  <cansmi>
Clc1cccc(c1C)S(=O)(=O)Cl

>  <HBA2>
2

>  <HBD>
0

>  <logP>
3.6567

>  <TPSA>
42.52

>  <MW>
225.092

$$$$

 OpenBabel02131620232D

 11 11  0  0  0  0  0  0  0  0999 V2000
    2.0000    1.0000    0.0000 S   0  0  0  0  0  0  0  0  0  0  0  0
    0.6667    0.2333    0.0000 C   0  0  0  0  0  0  0  0  0  0  0  0
    0.9042    2.0833    0.0000 O   0  0  0  0  0  0  0  0  0  0  0  0
    3.0750    2.0833    0.0000 O   0  0  0  0  0  0  0  0  0  0  0  0
   -0.6625    1.0000    0.0000 C   0  0  0  0  0  0  0  0  0  0  0  0
    3.3167    0.2208    0.0000 Cl  0  0  0  0  0  0  0  0  0  0  0  0
   -1.9958    0.2208    0.0000 C   0  0  0  0  0  0  0  0  0  0  0  0
   -3.3250    0.9875    0.0000 F   0  0  0  0  0  0  0  0  0  0  0  0
    0.6667   -1.3042    0.0000 C   0  0  0  0  0  0  0  0  0  0  0  0
   -0.6625   -2.0750    0.0000 C   0  0  0  0  0  0  0  0  0  0  0  0
   -1.9958   -1.3042    0.0000 C   0  0  0  0  0  0  0  0  0  0  0  0
  2  1  1  0  0  0  0
  3  1  2  0  0  0  0
  4  1  2  0  0  0  0
  5  2  2  0  0  0  0
  6  1  1  0  0  0  0
  7  5  1  0  0  0  0
  8  7  1  0  0  0  0
  9  2  1  0  0  0  0
 10  9  2  0  0  0  0
 11 10  1  0  0  0  0
 11  7  2  0  0  0  0
M  END
>  <MOLFORMULA>
C6 H4 Cl F O2 S

>  <MOLWEIGHT>
1.946126000000000e+002

>  <code>
TL00519

>  <appearance>
liquid

>  <purity>
97%

>  <product_name>
3-fluorobenzene-1-sulfonyl chloride

>  <cansmi>
Fc1cccc(c1)S(=O)(=O)Cl

>  <HBA2>
2

>  <HBD>
0

>  <logP>
2.834

>  <TPSA>
42.52

>  <MW>
194.611

$$$$

 OpenBabel02131620232D

 11 11  0  0  0  0  0  0  0  0999 V2000
    1.3375    1.0000    0.0000 S   0  0  0  0  0  0  0  0  0  0  0  0
    0.0042    0.2333    0.0000 C   0  0  0  0  0  0  0  0  0  0  0  0
    0.2417    2.0833    0.0000 O   0  0  0  0  0  0  0  0  0  0  0  0
    2.4125    2.0833    0.0000 O   0  0  0  0  0  0  0  0  0  0  0  0
    0.0042   -1.3042    0.0000 C   0  0  0  0  0  0  0  0  0  0  0  0
    2.6542    0.2208    0.0000 Cl  0  0  0  0  0  0  0  0  0  0  0  0
    1.3375   -2.0750    0.0000 Br  0  0  0  0  0  0  0  0  0  0  0  0
   -1.3333    1.0000    0.0000 C   0  0  0  0  0  0  0  0  0  0  0  0
   -1.3333   -2.0750    0.0000 C   0  0  0  0  0  0  0  0  0  0  0  0
   -2.6583    0.2208    0.0000 C   0  0  0  0  0  0  0  0  0  0  0  0
   -2.6625   -1.3042    0.0000 C   0  0  0  0  0  0  0  0  0  0  0  0
  2  1  1  0  0  0  0
  3  1  2  0  0  0  0
  4  1  2  0  0  0  0
  5  2  1  0  0  0  0
  6  1  1  0  0  0  0
  7  5  1  0  0  0  0
  8  2  2  0  0  0  0
  9  5  2  0  0  0  0
 10  8  1  0  0  0  0
 11 10  2  0  0  0  0
 11  9  1  0  0  0  0
M  END
>  <MOLFORMULA>
C6 H4 Br Cl O2 S

>  <MOLWEIGHT>
2.555186000000000e+002

>  <code>
TL00534

>  <appearance>
liquid

>  <purity>
97%

>  <product_name>
2-bromobenzene-1-sulfonyl chloride

>  <cansmi>
Brc1ccccc1S(=O)(=O)Cl

>  <HBA2>
2

>  <HBD>
0

>  <logP>
3.4574

>  <TPSA>
42.52

>  <MW>
255.517

$$$$

 OpenBabel02131620232D

 13 13  0  0  0  0  0  0  0  0999 V2000
    2.0042    0.7750    0.0000 S   0  0  0  0  0  0  0  0  0  0  0  0
    0.6667    0.0000    0.0000 C   0  0  0  0  0  0  0  0  0  0  0  0
   -0.6625    0.7708    0.0000 C   0  0  0  0  0  0  0  0  0  0  0  0
   -1.9958   -0.0042    0.0000 C   0  0  0  0  0  0  0  0  0  0  0  0
    0.6750   -1.5375    0.0000 C   0  0  0  0  0  0  0  0  0  0  0  0
    0.9125    1.8500    0.0000 O   0  0  0  0  0  0  0  0  0  0  0  0
    3.0792    1.8500    0.0000 O   0  0  0  0  0  0  0  0  0  0  0  0
   -1.9958   -1.5375    0.0000 C   0  0  0  0  0  0  0  0  0  0  0  0
    3.3250   -0.0042    0.0000 Cl  0  0  0  0  0  0  0  0  0  0  0  0
   -0.6625   -2.3042    0.0000 C   0  0  0  0  0  0  0  0  0  0  0  0
   -0.6708    2.3125    0.0000 F   0  0  0  0  0  0  0  0  0  0  0  0
   -3.3250    0.7583    0.0000 F   0  0  0  0  0  0  0  0  0  0  0  0
   -3.3333   -2.3042    0.0000 F   0  0  0  0  0  0  0  0  0  0  0  0
  2  1  1  0  0  0  0
  3  2  2  0  0  0  0
  4  3  1  0  0  0  0
  5  2  1  0  0  0  0
  6  1  2  0  0  0  0
  7  1  2  0  0  0  0
  8 10  1  0  0  0  0
  8  4  2  0  0  0  0
  9  1  1  0  0  0  0
 10  5  2  0  0  0  0
 11  3  1  0  0  0  0
 12  4  1  0  0  0  0
 13  8  1  0  0  0  0
M  END
>  <MOLFORMULA>
C6 H2 Cl F3 O2 S

>  <MOLWEIGHT>
2.305928000000000e+002

>  <code>
TL00605

>  <appearance>
liquid

>  <purity>
97%

>  <product_name>
2,3,4-trifluorobenzene-1-sulfonyl chloride

>  <cansmi>
Fc1ccc(c(c1F)F)S(=O)(=O)Cl

>  <HBA2>
2

>  <HBD>
0

>  <logP>
3.1122

>  <TPSA>
42.52

>  <MW>
230.592

$$$$

 OpenBabel02131620232D

 16 16  0  0  0  0  0  0  0  0999 V2000
    2.1167   -0.4417    0.0000 S   0  0  0  0  0  0  0  0  0  0  0  0
    0.7792   -1.2292    0.0000 C   0  0  0  0  0  0  0  0  0  0  0  0
   -0.5583   -0.4542    0.0000 C   0  0  0  0  0  0  0  0  0  0  0  0
   -1.9250    1.9083    0.0000 C   0  0  0  0  0  0  0  0  0  0  0  0
   -0.5583    1.1208    0.0000 O   0  0  0  0  0  0  0  0  0  0  0  0
   -1.8833   -1.2292    0.0000 C   0  0  0  0  0  0  0  0  0  0  0  0
    0.7792   -2.7750    0.0000 C   0  0  0  0  0  0  0  0  0  0  0  0
    1.0000    0.6833    0.0000 O   0  0  0  0  0  0  0  0  0  0  0  0
    3.2125    0.6833    0.0000 O   0  0  0  0  0  0  0  0  0  0  0  0
    3.4667   -1.2167    0.0000 Cl  0  0  0  0  0  0  0  0  0  0  0  0
   -1.8833   -2.7750    0.0000 C   0  0  0  0  0  0  0  0  0  0  0  0
   -3.1708    2.6333    0.0000 F   0  0  0  0  0  0  0  0  0  0  0  0
   -2.1875    3.5458    0.0000 F   0  0  0  0  0  0  0  0  0  0  0  0
   -3.4708    1.3208    0.0000 F   0  0  0  0  0  0  0  0  0  0  0  0
   -0.5583   -3.5417    0.0000 C   0  0  0  0  0  0  0  0  0  0  0  0
   -3.2333   -3.5417    0.0000 Br  0  0  0  0  0  0  0  0  0  0  0  0
  2  1  1  0  0  0  0
  3  2  2  0  0  0  0
  4  5  1  0  0  0  0
  5  3  1  0  0  0  0
  6  3  1  0  0  0  0
  7  2  1  0  0  0  0
  8  1  2  0  0  0  0
  9  1  2  0  0  0  0
 10  1  1  0  0  0  0
 11 15  1  0  0  0  0
 11  6  2  0  0  0  0
 12  4  1  0  0  0  0
 13  4  1  0  0  0  0
 14  4  1  0  0  0  0
 15  7  2  0  0  0  0
 16 11  1  0  0  0  0
M  END
>  <MOLFORMULA>
C7 H3 Br Cl F3 O3 S

>  <MOLWEIGHT>
3.395147000000000e+002

>  <code>
TL00664

>  <appearance>
liquid

>  <purity>
97%

>  <product_name>
4-bromo-2-(trifluoromethoxy)benzene-1-sulfonyl chloride

>  <cansmi>
FC(Oc1cc(Br)ccc1S(=O)(=O)Cl)(F)F

>  <HBA2>
3

>  <HBD>
0

>  <logP>
4.356

>  <TPSA>
51.75

>  <MW>
339.514

$$$$

 OpenBabel02131620232D

 12 12  0  0  0  0  0  0  0  0999 V2000
    2.6667    0.9875    0.0000 S   0  0  0  0  0  0  0  0  0  0  0  0
    1.3417    0.2083    0.0000 C   0  0  0  0  0  0  0  0  0  0  0  0
   -4.0208    1.7625    0.0000 N   0  0  0  0  0  0  0  0  0  0  0  0
    1.5542    2.1083    0.0000 O   0  0  0  0  0  0  0  0  0  0  0  0
    3.7625    2.1083    0.0000 O   0  0  0  0  0  0  0  0  0  0  0  0
   -2.6625    0.9833    0.0000 C   0  0  0  0  0  0  0  0  0  0  0  0
    4.0125    0.2125    0.0000 Cl  0  0  0  0  0  0  0  0  0  0  0  0
    0.0125    0.9833    0.0000 C   0  0  0  0  0  0  0  0  0  0  0  0
   -1.3208    0.2083    0.0000 C   0  0  0  0  0  0  0  0  0  0  0  0
    1.3417   -1.3375    0.0000 C   0  0  0  0  0  0  0  0  0  0  0  0
    0.0125   -2.1000    0.0000 C   0  0  0  0  0  0  0  0  0  0  0  0
   -1.3208   -1.3375    0.0000 C   0  0  0  0  0  0  0  0  0  0  0  0
  2  1  1  0  0  0  0
  3  6  3  0  0  0  0
  4  1  2  0  0  0  0
  5  1  2  0  0  0  0
  6  9  1  0  0  0  0
  7  1  1  0  0  0  0
  8  2  2  0  0  0  0
  9  8  1  0  0  0  0
 10  2  1  0  0  0  0
 11 10  2  0  0  0  0
 12 11  1  0  0  0  0
 12  9  2  0  0  0  0
M  END
>  <MOLFORMULA>
C7 H4 Cl N O2 S

>  <MOLWEIGHT>
2.016326000000000e+002

>  <code>
TL00666

>  <appearance>
solid

>  <purity>
97%

>  <product_name>
3-cyanobenzene-1-sulfonyl chloride

>  <cansmi>
N#Cc1cccc(c1)S(=O)(=O)Cl

>  <HBA2>
3

>  <HBD>
0

>  <logP>
2.56658

>  <TPSA>
66.31

>  <MW>
201.63

$$$$

 OpenBabel02131620232D

 12 12  0  0  0  0  0  0  0  0999 V2000
    1.9917    0.9958    0.0000 S   0  0  0  0  0  0  0  0  0  0  0  0
    0.6667    0.2208    0.0000 C   0  0  0  0  0  0  0  0  0  0  0  0
   -0.6625    0.9833    0.0000 C   0  0  0  0  0  0  0  0  0  0  0  0
   -1.9875    0.2208    0.0000 C   0  0  0  0  0  0  0  0  0  0  0  0
    3.0792    2.1083    0.0000 O   0  0  0  0  0  0  0  0  0  0  0  0
    0.8792    2.1083    0.0000 O   0  0  0  0  0  0  0  0  0  0  0  0
    3.3292    0.2250    0.0000 Cl  0  0  0  0  0  0  0  0  0  0  0  0
   -1.9875   -1.3250    0.0000 C   0  0  0  0  0  0  0  0  0  0  0  0
    0.6667   -1.3250    0.0000 C   0  0  0  0  0  0  0  0  0  0  0  0
   -0.6625   -2.0792    0.0000 C   0  0  0  0  0  0  0  0  0  0  0  0
   -3.3375    0.9958    0.0000 Cl  0  0  0  0  0  0  0  0  0  0  0  0
   -3.3375   -2.1042    0.0000 C   0  0  0  0  0  0  0  0  0  0  0  0
  2  1  1  0  0  0  0
  3  2  2  0  0  0  0
  4  3  1  0  0  0  0
  5  1  2  0  0  0  0
  6  1  2  0  0  0  0
  7  1  1  0  0  0  0
  8 10  1  0  0  0  0
  8  4  2  0  0  0  0
  9  2  1  0  0  0  0
 10  9  2  0  0  0  0
 11  4  1  0  0  0  0
 12  8  1  0  0  0  0
M  END
>  <MOLFORMULA>
C7 H6 Cl2 O2 S

>  <MOLWEIGHT>
2.250944000000000e+002

>  <code>
TL00685

>  <appearance>
solid

>  <purity>
97%

>  <product_name>
3-chloro-4-methylbenzene-1-sulfonyl chloride

>  <cansmi>
Cc1ccc(cc1Cl)S(=O)(=O)Cl

>  <HBA2>
2

>  <HBD>
0

>  <logP>
3.6567

>  <TPSA>
42.52

>  <MW>
225.092

$$$$

 OpenBabel02131620232D

 13 13  0  0  0  0  0  0  0  0999 V2000
    9.2542   -1.3250    0.0000 S   0  0  0  0  0  0  0  0  0  0  0  0
    8.7292   -1.6167    0.0000 C   0  0  0  0  0  0  0  0  0  0  0  0
    8.7292   -2.2292    0.0000 C   0  0  0  0  0  0  0  0  0  0  0  0
    8.7333   -1.0250    0.0000 O   0  0  0  0  0  0  0  0  0  0  0  0
    9.7708   -1.0250    0.0000 O   0  0  0  0  0  0  0  0  0  0  0  0
    8.2042   -1.3167    0.0000 C   0  0  0  0  0  0  0  0  0  0  0  0
    9.7833   -1.6250    0.0000 Cl  0  0  0  0  0  0  0  0  0  0  0  0
    8.2042   -2.5292    0.0000 C   0  0  0  0  0  0  0  0  0  0  0  0
    7.6833   -2.2292    0.0000 C   0  0  0  0  0  0  0  0  0  0  0  0
    7.6833   -1.6167    0.0000 C   0  0  0  0  0  0  0  0  0  0  0  0
    7.1542   -2.5292    0.0000 Br  0  0  0  0  0  0  0  0  0  0  0  0
    9.2542   -2.5292    0.0000 C   0  0  0  0  0  0  0  0  0  0  0  0
    9.7833   -2.2292    0.0000 C   0  0  0  0  0  0  0  0  0  0  0  0
  2  1  1  0  0  0  0
  3  2  2  0  0  0  0
  4  1  2  0  0  0  0
  5  1  2  0  0  0  0
  6  2  1  0  0  0  0
  7  1  1  0  0  0  0
  8  3  1  0  0  0  0
  9 10  1  0  0  0  0
  9  8  2  0  0  0  0
 10  6  2  0  0  0  0
 11  9  1  0  0  0  0
 12  3  1  0  0  0  0
 13 12  1  0  0  0  0
M  END
>  <MOLFORMULA>
C8 H8 Br Cl O2 S

>  <MOLWEIGHT>
2.835722000000000e+002

>  <code>
TL00690

>  <appearance>
liquid

>  <purity>
95%

>  <product_name>
4-bromo-2-ethylbenzene-1-sulfonyl chloride

>  <cansmi>
CCc1cc(Br)ccc1S(=O)(=O)Cl

>  <HBA2>
2

>  <HBD>
0

>  <logP>
4.0198

>  <TPSA>
42.52

>  <MW>
283.57

$$$$

 OpenBabel02131620232D

 13 14  0  0  0  0  0  0  0  0999 V2000
    1.3565   -2.6836    0.0000 O   0  0  0  0  0  0  0  0  0  0  0  0
    1.3872   -2.0844    0.0000 S   0  0  0  0  0  0  0  0  0  0  0  0
    0.8836   -1.7582    0.0000 O   0  0  0  0  0  0  0  0  0  0  0  0
   -0.1597   -0.5854    0.0000 C   0  0  0  0  0  0  0  0  0  0  0  0
   -0.1621   -1.1854    0.0000 C   0  0  0  0  0  0  0  0  0  0  0  0
    0.3570   -1.4917    0.0000 O   0  0  0  0  0  0  0  0  0  0  0  0
    0.8768   -0.5896    0.0000 C   0  0  0  0  0  0  0  0  0  0  0  0
    0.8730   -1.1868    0.0000 C   0  0  0  0  0  0  0  0  0  0  0  0
    1.3874   -1.4873    0.0000 C   0  0  0  0  0  0  0  0  0  0  0  0
    1.9060   -1.1916    0.0000 C   0  0  0  0  0  0  0  0  0  0  0  0
    1.9069   -0.5922    0.0000 C   0  0  0  0  0  0  0  0  0  0  0  0
    1.3921   -0.2943    0.0000 C   0  0  0  0  0  0  0  0  0  0  0  0
    1.9022   -2.3901    0.0000 Cl  0  0  0  0  0  0  0  0  0  0  0  0
  1  2  2  0  0  0  0
  2  3  2  0  0  0  0
  2 13  1  0  0  0  0
  4  5  1  0  0  0  0
  5  6  1  0  0  0  0
  6  8  1  0  0  0  0
  7  8  2  0  0  0  0
  7  4  1  0  0  0  0
  8  9  1  0  0  0  0
  9 10  2  0  0  0  0
  9  2  1  0  0  0  0
 10 11  1  0  0  0  0
 11 12  2  0  0  0  0
 12  7  1  0  0  0  0
M  END
>  <MOLFORMULA>
C8 H7 Cl O3 S

>  <MOLWEIGHT>
2.186590000000000e+002

>  <code>
CC00903

>  <appearance>
Solid

>  <purity>
97%

>  <product_name>
2,3-dihydro-1-benzofuran-7-sulfonyl chloride

>  <cansmi>
ClS(=O)(=O)c1cccc2c1OCC2

>  <HBA2>
3

>  <HBD>
0

>  <logP>
2.6298

>  <TPSA>
51.75

>  <MW>
218.657

$$$$

 OpenBabel02131620232D

 14 15  0  0  0  0  0  0  0  0999 V2000
    2.5583   -2.8625    0.0000 C   0  0  0  0  0  0  0  0  0  0  0  0
    2.5583   -3.6917    0.0000 C   0  0  0  0  0  0  0  0  0  0  0  0
    3.2745   -4.1042    0.0000 O   0  0  0  0  0  0  0  0  0  0  0  0
    3.2745   -2.4458    0.0000 C   0  0  0  0  0  0  0  0  0  0  0  0
    3.9902   -2.8625    0.0000 C   0  0  0  0  0  0  0  0  0  0  0  0
    3.9872   -3.6917    0.0000 C   0  0  0  0  0  0  0  0  0  0  0  0
    4.7032   -4.1092    0.0000 C   0  0  0  0  0  0  0  0  0  0  0  0
    5.4227   -3.6944    0.0000 C   0  0  0  0  0  0  0  0  0  0  0  0
    5.4218   -2.8621    0.0000 C   0  0  0  0  0  0  0  0  0  0  0  0
    4.7052   -2.4525    0.0000 C   0  0  0  0  0  0  0  0  0  0  0  0
    6.1351   -2.4476    0.0000 S   0  0  0  0  0  0  0  0  0  0  0  0
    6.8507   -2.8582    0.0000 Cl  0  0  0  0  0  0  0  0  0  0  0  0
    5.4167   -2.0333    0.0000 O   0  0  0  0  0  0  0  0  0  0  0  0
    6.8508   -2.0372    0.0000 O   0  0  0  0  0  0  0  0  0  0  0  0
  1  2  1  0  0  0  0
  1  4  1  0  0  0  0
  2  3  1  0  0  0  0
  3  6  1  0  0  0  0
  5  4  1  0  0  0  0
  5  6  2  0  0  0  0
  6  7  1  0  0  0  0
  7  8  2  0  0  0  0
  8  9  1  0  0  0  0
  9 10  2  0  0  0  0
  9 11  1  0  0  0  0
 10  5  1  0  0  0  0
 11 12  1  0  0  0  0
 11 13  2  0  0  0  0
 11 14  2  0  0  0  0
M  END
>  <MOLFORMULA>
C9 H9 Cl O3 S

>  <MOLWEIGHT>
2.326861000000000e+002

>  <code>
CC32803

>  <appearance>
Solid

>  <purity>
97%

>  <product_name>
chroman-6-sulfonyl chloride

>  <cansmi>
ClS(=O)(=O)c1ccc2c(c1)CCCO2

>  <HBA2>
3

>  <HBD>
0

>  <logP>
3.0199

>  <TPSA>
51.75

>  <MW>
232.684

$$$$

 OpenBabel02131620232D

 15 16  0  0  0  0  0  0  0  0999 V2000
    4.5277   -2.0458    0.0000 C   0  0  0  0  0  0  0  0  0  0  0  0
    4.5266   -2.8732    0.0000 C   0  0  0  0  0  0  0  0  0  0  0  0
    5.2414   -3.2860    0.0000 C   0  0  0  0  0  0  0  0  0  0  0  0
    5.2396   -1.6330    0.0000 C   0  0  0  0  0  0  0  0  0  0  0  0
    5.9550   -2.0422    0.0000 C   0  0  0  0  0  0  0  0  0  0  0  0
    5.9538   -2.8752    0.0000 C   0  0  0  0  0  0  0  0  0  0  0  0
    6.6707   -3.2905    0.0000 N   0  0  0  0  0  0  0  0  0  0  0  0
    7.3933   -2.8773    0.0000 C   0  0  0  0  0  0  0  0  0  0  0  0
    7.3945   -2.0442    0.0000 C   0  0  0  0  0  0  0  0  0  0  0  0
    6.6731   -1.6244    0.0000 O   0  0  0  0  0  0  0  0  0  0  0  0
    6.6683   -4.1155    0.0000 C   0  0  0  0  0  0  0  0  0  0  0  0
    3.8118   -3.2851    0.0000 S   0  0  0  0  0  0  0  0  0  0  0  0
    3.0976   -2.8720    0.0000 O   0  0  0  0  0  0  0  0  0  0  0  0
    3.8111   -4.1101    0.0000 O   0  0  0  0  0  0  0  0  0  0  0  0
    3.5989   -2.4880    0.0000 Cl  0  0  0  0  0  0  0  0  0  0  0  0
  1  2  2  0  0  0  0
  2 12  1  0  0  0  0
  2  3  1  0  0  0  0
  3  6  2  0  0  0  0
  4  1  1  0  0  0  0
  5  4  2  0  0  0  0
  5 10  1  0  0  0  0
  5  6  1  0  0  0  0
  6  7  1  0  0  0  0
  7  8  1  0  0  0  0
  7 11  1  0  0  0  0
  8  9  1  0  0  0  0
  9 10  1  0  0  0  0
 12 13  2  0  0  0  0
 12 14  2  0  0  0  0
 12 15  1  0  0  0  0
M  END
>  <MOLFORMULA>
C9 H10 Cl N O3 S

>  <MOLWEIGHT>
2.477010000000000e+002

>  <code>
CC36103

>  <purity>
97%

>  <product_name>
4-methyl-3,4-dihydro-2H-1,4-benzoxazine-6-sulfonyl chloride

>  <cansmi>
CN1CCOc2c1cc(cc2)S(=O)(=O)Cl

>  <HBA2>
4

>  <HBD>
0

>  <logP>
2.5885

>  <TPSA>
54.99

>  <MW>
247.699

$$$$

 OpenBabel02131620232D

 18 19  0  0  0  0  0  0  0  0999 V2000
    5.7465   -3.4804    0.0000 C   0  0  0  0  0  0  0  0  0  0  0  0
    6.4557   -3.0542    0.0000 C   0  0  0  0  0  0  0  0  0  0  0  0
    6.4403   -2.2289    0.0000 C   0  0  0  0  0  0  0  0  0  0  0  0
    5.7206   -1.8287    0.0000 C   0  0  0  0  0  0  0  0  0  0  0  0
    5.0066   -2.2599    0.0000 C   0  0  0  0  0  0  0  0  0  0  0  0
    5.0297   -3.0838    0.0000 C   0  0  0  0  0  0  0  0  0  0  0  0
    4.3202   -3.5118    0.0000 C   0  0  0  0  0  0  0  0  0  0  0  0
    3.5969   -3.1151    0.0000 O   0  0  0  0  0  0  0  0  0  0  0  0
    2.8875   -3.5431    0.0000 C   0  0  0  0  0  0  0  0  0  0  0  0
    2.1712   -3.1424    0.0000 C   0  0  0  0  0  0  0  0  0  0  0  0
    1.4664   -3.5697    0.0000 C   0  0  0  0  0  0  0  0  0  0  0  0
    1.4840   -4.3954    0.0000 C   0  0  0  0  0  0  0  0  0  0  0  0
    2.2124   -4.7919    0.0000 C   0  0  0  0  0  0  0  0  0  0  0  0
    2.9142   -4.3581    0.0000 C   0  0  0  0  0  0  0  0  0  0  0  0
    7.1475   -1.8040    0.0000 S   0  0  0  0  0  0  0  0  0  0  0  0
    7.8690   -2.2040    0.0000 Cl  0  0  0  0  0  0  0  0  0  0  0  0
    6.4292   -1.3875    0.0000 O   0  0  0  0  0  0  0  0  0  0  0  0
    7.8583   -1.3833    0.0000 O   0  0  0  0  0  0  0  0  0  0  0  0
  1  2  2  0  0  0  0
  2  3  1  0  0  0  0
  3 15  1  0  0  0  0
  3  4  2  0  0  0  0
  4  5  1  0  0  0  0
  5  6  2  0  0  0  0
  6  1  1  0  0  0  0
  6  7  1  0  0  0  0
  7  8  1  0  0  0  0
  8  9  1  0  0  0  0
  9 10  2  0  0  0  0
 10 11  1  0  0  0  0
 11 12  2  0  0  0  0
 12 13  1  0  0  0  0
 13 14  2  0  0  0  0
 14  9  1  0  0  0  0
 15 16  1  0  0  0  0
 15 17  2  0  0  0  0
 15 18  2  0  0  0  0
M  END
>  <MOLFORMULA>
C13 H11 Cl O3 S

>  <MOLWEIGHT>
2.827459000000000e+002

>  <code>
CC63703

>  <appearance>
Solid

>  <purity>
97%

>  <product_name>
4-(phenoxymethyl)benzenesulfonyl chloride

>  <cansmi>
ClS(=O)(=O)c1ccc(cc1)COc1ccccc1

>  <HBA2>
3

>  <HBD>
0

>  <logP>
4.2739

>  <TPSA>
51.75

>  <MW>
282.743

$$$$

 OpenBabel02131620232D

 14 14  0  0  0  0  0  0  0  0999 V2000
    6.5792   -7.4791    0.0000 O   0  0  0  0  0  0  0  0  0  0  0  0
    7.2485   -6.9967    0.0000 C   0  0  0  0  0  0  0  0  0  0  0  0
    6.9917   -6.2084    0.0000 C   0  0  0  0  0  0  0  0  0  0  0  0
    6.1667   -6.2084    0.0000 C   0  0  0  0  0  0  0  0  0  0  0  0
    5.9099   -6.9967    0.0000 C   0  0  0  0  0  0  0  0  0  0  0  0
    5.6820   -5.5407    0.0000 C   0  0  0  0  0  0  0  0  0  0  0  0
    6.0178   -4.7872    0.0000 O   0  0  0  0  0  0  0  0  0  0  0  0
    4.8615   -5.6267    0.0000 O   0  0  0  0  0  0  0  0  0  0  0  0
    4.3768   -4.9590    0.0000 C   0  0  0  0  0  0  0  0  0  0  0  0
    3.5563   -5.0450    0.0000 C   0  0  0  0  0  0  0  0  0  0  0  0
    8.0327   -7.2528    0.0000 S   0  0  0  0  0  0  0  0  0  0  0  0
    8.2030   -8.0600    0.0000 Cl  0  0  0  0  0  0  0  0  0  0  0  0
    8.0250   -6.4250    0.0000 O   0  0  0  0  0  0  0  0  0  0  0  0
    8.8542   -7.2500    0.0000 O   0  0  0  0  0  0  0  0  0  0  0  0
  1  2  1  0  0  0  0
  2  3  2  0  0  0  0
  2 11  1  0  0  0  0
  3  4  1  0  0  0  0
  4  6  1  0  0  0  0
  4  5  2  0  0  0  0
  5  1  1  0  0  0  0
  6  7  2  0  0  0  0
  6  8  1  0  0  0  0
  8  9  1  0  0  0  0
  9 10  1  0  0  0  0
 11 12  1  0  0  0  0
 11 13  2  0  0  0  0
 11 14  2  0  0  0  0
M  END
>  <MOLFORMULA>
C7 H7 Cl O5 S

>  <MOLWEIGHT>
2.386463000000000e+002

>  <code>
CC73303

>  <appearance>
Liquid

>  <purity>
95%

>  <product_name>
ethyl 5-(chlorosulfonyl)-3-furoate

>  <cansmi>
CCOC(=O)c1coc(c1)S(=O)(=O)Cl

>  <HBA2>
5

>  <HBD>
0

>  <logP>
2.4646

>  <TPSA>
81.96

>  <MW>
238.645

$$$$

 OpenBabel02131620232D

 14 15  0  0  0  0  0  0  0  0999 V2000
    6.1139   -2.1875    0.0000 C   0  0  0  0  0  0  0  0  0  0  0  0
    6.1151   -3.0148    0.0000 C   0  0  0  0  0  0  0  0  0  0  0  0
    5.4003   -3.4277    0.0000 C   0  0  0  0  0  0  0  0  0  0  0  0
    5.4021   -1.7747    0.0000 C   0  0  0  0  0  0  0  0  0  0  0  0
    4.6867   -2.1838    0.0000 C   0  0  0  0  0  0  0  0  0  0  0  0
    4.6864   -3.0103    0.0000 C   0  0  0  0  0  0  0  0  0  0  0  0
    3.9003   -3.2654    0.0000 O   0  0  0  0  0  0  0  0  0  0  0  0
    3.4147   -2.5966    0.0000 C   0  0  0  0  0  0  0  0  0  0  0  0
    3.9008   -1.9283    0.0000 N   0  0  0  0  0  0  0  0  0  0  0  0
    2.5897   -2.5963    0.0000 O   0  0  0  0  0  0  0  0  0  0  0  0
    6.8299   -3.4268    0.0000 S   0  0  0  0  0  0  0  0  0  0  0  0
    6.8305   -4.2518    0.0000 Cl  0  0  0  0  0  0  0  0  0  0  0  0
    6.8250   -2.6000    0.0000 O   0  0  0  0  0  0  0  0  0  0  0  0
    7.6542   -3.4250    0.0000 O   0  0  0  0  0  0  0  0  0  0  0  0
  1  2  1  0  0  0  0
  2 11  1  0  0  0  0
  2  3  2  0  0  0  0
  3  6  1  0  0  0  0
  4  1  2  0  0  0  0
  5  4  1  0  0  0  0
  5  6  2  0  0  0  0
  6  7  1  0  0  0  0
  7  8  1  0  0  0  0
  8  9  1  0  0  0  0
  8 10  2  0  0  0  0
  9  5  1  0  0  0  0
 11 12  1  0  0  0  0
 11 13  2  0  0  0  0
 11 14  2  0  0  0  0
M  END
>  <MOLFORMULA>
C7 H4 Cl N O4 S

>  <MOLWEIGHT>
2.336306000000000e+002

>  <code>
CC75703

>  <appearance>
Solid

>  <purity>
95%

>  <product_name>
2-oxo-2,3-dihydro-1,3-benzoxazole-6-sulfonyl chloride

>  <cansmi>
O=c1[nH]c2c(o1)cc(cc2)S(=O)(=O)Cl

>  <HBA2>
4

>  <HBD>
1

>  <logP>
2.1294

>  <TPSA>
88.52

>  <MW>
233.629

$$$$

 OpenBabel02131620232D

 15 16  0  0  0  0  0  0  0  0999 V2000
    7.0223   -5.8916    0.0000 C   0  0  0  0  0  0  0  0  0  0  0  0
    7.0234   -6.7190    0.0000 C   0  0  0  0  0  0  0  0  0  0  0  0
    6.3086   -7.1319    0.0000 C   0  0  0  0  0  0  0  0  0  0  0  0
    6.3104   -5.4789    0.0000 C   0  0  0  0  0  0  0  0  0  0  0  0
    5.5950   -5.8880    0.0000 C   0  0  0  0  0  0  0  0  0  0  0  0
    5.5948   -6.7144    0.0000 C   0  0  0  0  0  0  0  0  0  0  0  0
    4.8087   -6.9696    0.0000 O   0  0  0  0  0  0  0  0  0  0  0  0
    4.3230   -6.3008    0.0000 C   0  0  0  0  0  0  0  0  0  0  0  0
    4.8091   -5.6324    0.0000 N   0  0  0  0  0  0  0  0  0  0  0  0
    3.4980   -6.3005    0.0000 O   0  0  0  0  0  0  0  0  0  0  0  0
    7.7382   -7.1309    0.0000 S   0  0  0  0  0  0  0  0  0  0  0  0
    4.5544   -4.8477    0.0000 C   0  0  0  0  0  0  0  0  0  0  0  0
    7.7389   -7.9559    0.0000 Cl  0  0  0  0  0  0  0  0  0  0  0  0
    7.7333   -6.3042    0.0000 O   0  0  0  0  0  0  0  0  0  0  0  0
    8.5625   -7.1292    0.0000 O   0  0  0  0  0  0  0  0  0  0  0  0
  1  2  1  0  0  0  0
  2 11  1  0  0  0  0
  2  3  2  0  0  0  0
  3  6  1  0  0  0  0
  4  1  2  0  0  0  0
  5  4  1  0  0  0  0
  5  6  2  0  0  0  0
  6  7  1  0  0  0  0
  7  8  1  0  0  0  0
  8  9  1  0  0  0  0
  8 10  2  0  0  0  0
  9  5  1  0  0  0  0
  9 12  1  0  0  0  0
 11 13  1  0  0  0  0
 11 14  2  0  0  0  0
 11 15  2  0  0  0  0
M  END
>  <MOLFORMULA>
C8 H6 Cl N O4 S

>  <MOLWEIGHT>
2.476574000000000e+002

>  <code>
CC76703

>  <appearance>
Solid

>  <purity>
97%

>  <product_name>
3-methyl-2-oxo-2,3-dihydro-1,3-benzoxazole-6-sulfonyl chloride

>  <cansmi>
Cn1c(=O)oc2c1ccc(c2)S(=O)(=O)Cl

>  <HBA2>
5

>  <HBD>
0

>  <logP>
2.1398

>  <TPSA>
77.66

>  <MW>
247.656

$$$$

 OpenBabel02131620232D

 20 21  0  0  0  0  0  0  0  0999 V2000
    3.9416    0.0833    0.0000 S   0  0  0  0  0  0  0  0  0  0  0  0
    4.6109    0.5658    0.0000 C   0  0  0  0  0  0  0  0  0  0  0  0
    4.3541    1.3541    0.0000 C   0  0  0  0  0  0  0  0  0  0  0  0
    3.5291    1.3541    0.0000 C   0  0  0  0  0  0  0  0  0  0  0  0
    3.2723    0.5658    0.0000 C   0  0  0  0  0  0  0  0  0  0  0  0
    5.3952    0.3097    0.0000 S   0  0  0  0  0  0  0  0  0  0  0  0
    6.0091    0.8608    0.0000 Cl  0  0  0  0  0  0  0  0  0  0  0  0
    4.9750   -0.4000    0.0000 O   0  0  0  0  0  0  0  0  0  0  0  0
    6.1041   -0.1000    0.0000 O   0  0  0  0  0  0  0  0  0  0  0  0
    2.4881    0.3097    0.0000 C   0  0  0  0  0  0  0  0  0  0  0  0
    1.8742    0.8609    0.0000 N   0  0  0  0  0  0  0  0  0  0  0  0
    1.0899    0.6048    0.0000 C   0  0  0  0  0  0  0  0  0  0  0  0
    0.4760    1.1559    0.0000 C   0  0  0  0  0  0  0  0  0  0  0  0
    0.9196   -0.2024    0.0000 O   0  0  0  0  0  0  0  0  0  0  0  0
    0.6498    1.9610    0.0000 C   0  0  0  0  0  0  0  0  0  0  0  0
    0.0367    2.5119    0.0000 C   0  0  0  0  0  0  0  0  0  0  0  0
   -0.7485    2.2560    0.0000 C   0  0  0  0  0  0  0  0  0  0  0  0
   -0.9171    1.4440    0.0000 C   0  0  0  0  0  0  0  0  0  0  0  0
   -0.3027    0.8967    0.0000 C   0  0  0  0  0  0  0  0  0  0  0  0
   -1.3631    2.8063    0.0000 Cl  0  0  0  0  0  0  0  0  0  0  0  0
  1  2  1  0  0  0  0
  2  6  1  0  0  0  0
  2  3  2  0  0  0  0
  3  4  1  0  0  0  0
  4  5  2  0  0  0  0
  5 10  1  0  0  0  0
  5  1  1  0  0  0  0
  6  7  1  0  0  0  0
  6  8  2  0  0  0  0
  6  9  2  0  0  0  0
 10 11  1  0  0  0  0
 11 12  1  0  0  0  0
 12 13  1  0  0  0  0
 12 14  2  0  0  0  0
 13 15  2  0  0  0  0
 15 16  1  0  0  0  0
 16 17  2  0  0  0  0
 17 18  1  0  0  0  0
 17 20  1  0  0  0  0
 18 19  2  0  0  0  0
 19 13  1  0  0  0  0
M  END
>  <MOLFORMULA>
C12 H9 Cl2 N O3 S2

>  <MOLWEIGHT>
3.502451000000000e+002

>  <code>
KM03846

>  <appearance>
solid

>  <purity>
97%

>  <product_name>
5-{[(4-chlorobenzoyl)amino]methyl}thiophene-2-sulfonyl chloride

>  <cansmi>
Clc1ccc(cc1)C(=O)NCc1ccc(s1)S(=O)(=O)Cl

>  <HBA2>
5

>  <HBD>
1

>  <logP>
4.7307

>  <TPSA>
99.86

>  <MW>
350.241

$$$$

 OpenBabel02131620232D

 10 10  0  0  0  0  0  0  0  0999 V2000
    4.2083   -3.2166    0.0000 O   0  0  0  0  0  0  0  0  0  0  0  0
    3.5390   -2.7258    0.0000 C   0  0  0  0  0  0  0  0  0  0  0  0
    3.8042   -1.9375    0.0000 C   0  0  0  0  0  0  0  0  0  0  0  0
    4.6167   -1.9417    0.0000 C   0  0  0  0  0  0  0  0  0  0  0  0
    4.8735   -2.7300    0.0000 C   0  0  0  0  0  0  0  0  0  0  0  0
    5.6625   -2.9833    0.0000 S   0  0  0  0  0  0  0  0  0  0  0  0
    2.7458   -2.9792    0.0000 C   0  0  0  0  0  0  0  0  0  0  0  0
    5.8368   -3.7897    0.0000 Cl  0  0  0  0  0  0  0  0  0  0  0  0
    5.6583   -2.1583    0.0000 O   0  0  0  0  0  0  0  0  0  0  0  0
    6.4875   -2.9833    0.0000 O   0  0  0  0  0  0  0  0  0  0  0  0
  1  2  1  0  0  0  0
  2  7  1  0  0  0  0
  2  3  2  0  0  0  0
  3  4  1  0  0  0  0
  4  5  2  0  0  0  0
  5  1  1  0  0  0  0
  5  6  1  0  0  0  0
  6  8  1  0  0  0  0
  6  9  2  0  0  0  0
  6 10  2  0  0  0  0
M  END
>  <MOLFORMULA>
C5 H5 Cl O3 S

>  <MOLWEIGHT>
1.806105000000000e+002

>  <code>
MO08177

>  <appearance>
Liquid

>  <purity>
95%

>  <product_name>
5-methylfuran-2-sulfonyl chloride

>  <cansmi>
Cc1ccc(o1)S(=O)(=O)Cl

>  <HBA2>
3

>  <HBD>
0

>  <logP>
2.5963

>  <TPSA>
55.66

>  <MW>
180.609

$$$$

 OpenBabel02131620232D

 23 24  0  0  0  0  0  0  0  0999 V2000
   -1.6666   -0.9167    0.0000 S   0  0  0  0  0  0  0  0  0  0  0  0
   -0.9973   -0.4342    0.0000 C   0  0  0  0  0  0  0  0  0  0  0  0
   -1.2541    0.3541    0.0000 C   0  0  0  0  0  0  0  0  0  0  0  0
   -2.0791    0.3541    0.0000 C   0  0  0  0  0  0  0  0  0  0  0  0
   -2.3359   -0.4342    0.0000 C   0  0  0  0  0  0  0  0  0  0  0  0
   -2.5638    1.0217    0.0000 C   0  0  0  0  0  0  0  0  0  0  0  0
   -3.1202   -0.6903    0.0000 C   0  0  0  0  0  0  0  0  0  0  0  0
   -3.7341   -0.1392    0.0000 F   0  0  0  0  0  0  0  0  0  0  0  0
   -3.2905   -1.4975    0.0000 F   0  0  0  0  0  0  0  0  0  0  0  0
   -3.1646    0.1335    0.0000 F   0  0  0  0  0  0  0  0  0  0  0  0
   -0.7695    1.0217    0.0000 S   0  0  0  0  0  0  0  0  0  0  0  0
    0.0510    0.9358    0.0000 Cl  0  0  0  0  0  0  0  0  0  0  0  0
   -1.4875    1.4375    0.0000 O   0  0  0  0  0  0  0  0  0  0  0  0
   -0.3625    1.7416    0.0000 O   0  0  0  0  0  0  0  0  0  0  0  0
   -2.2275    1.7727    0.0000 C   0  0  0  0  0  0  0  0  0  0  0  0
   -2.7114    2.4399    0.0000 C   0  0  0  0  0  0  0  0  0  0  0  0
   -3.5329    2.3543    0.0000 C   0  0  0  0  0  0  0  0  0  0  0  0
   -3.8680    1.5958    0.0000 C   0  0  0  0  0  0  0  0  0  0  0  0
   -3.3821    0.9318    0.0000 C   0  0  0  0  0  0  0  0  0  0  0  0
   -0.2131   -0.6903    0.0000 C   0  0  0  0  0  0  0  0  0  0  0  0
   -0.0427   -1.4975    0.0000 O   0  0  0  0  0  0  0  0  0  0  0  0
    0.4008   -0.1391    0.0000 O   0  0  0  0  0  0  0  0  0  0  0  0
    1.1851   -0.3952    0.0000 C   0  0  0  0  0  0  0  0  0  0  0  0
  1  2  1  0  0  0  0
  2  3  2  0  0  0  0
  2 20  1  0  0  0  0
  3 11  1  0  0  0  0
  3  4  1  0  0  0  0
  4  6  1  0  0  0  0
  4  5  2  0  0  0  0
  5  7  1  0  0  0  0
  5  1  1  0  0  0  0
  6 15  2  0  0  0  0
  7  8  1  0  0  0  0
  7  9  1  0  0  0  0
  7 10  1  0  0  0  0
 11 12  1  0  0  0  0
 11 13  2  0  0  0  0
 11 14  2  0  0  0  0
 15 16  1  0  0  0  0
 16 17  2  0  0  0  0
 17 18  1  0  0  0  0
 18 19  2  0  0  0  0
 19  6  1  0  0  0  0
 20 21  2  0  0  0  0
 20 22  1  0  0  0  0
 22 23  1  0  0  0  0
M  END
>  <MOLFORMULA>
C13 H8 Cl F3 O4 S2

>  <MOLWEIGHT>
3.847812000000000e+002

>  <code>
SEW03400

>  <appearance>
solid

>  <purity>
95%

>  <product_name>
methyl 3-(chlorosulfonyl)-4-phenyl-5-(trifluoromethyl)thiophene-2-carboxylate

>  <cansmi>
COC(=O)c1sc(c(c1S(=O)(=O)Cl)c1ccccc1)C(F)(F)F

>  <HBA2>
5

>  <HBD>
0

>  <logP>
5.2288

>  <TPSA>
97.06

>  <MW>
384.778

$$$$
