REMARK  3 active torsions:
REMARK  status: ('A' for Active; 'I' for Inactive)
REMARK    1  A    between atoms: C_1  and  C_6 
REMARK    2  A    between atoms: C_6  and  N_9 
REMARK    3  A    between atoms: C_10  and  O_12 
ROOT
HETATM    1  C   UNL     1      -1.575  -1.197  -0.069  1.00  0.00    -0.005 A 
HETATM    2  C   UNL     1      -0.215  -0.738  -0.075  1.00  0.00     0.003 A 
HETATM    3  N   UNL     1      -1.562   1.036  -0.092  1.00  0.00    -0.365 N 
HETATM    4  C   UNL     1      -2.373  -0.066  -0.098  1.00  0.00     0.098 A 
HETATM    5  C   UNL     1      -0.242   0.656  -0.078  1.00  0.00     0.043 A 
HETATM    6  C   UNL     1       1.039  -1.382  -0.048  1.00  0.00     0.051 A 
HETATM    7  C   UNL     1       0.921   1.434  -0.055  1.00  0.00     0.033 A 
HETATM    8  C   UNL     1       2.220  -0.627  -0.033  1.00  0.00     0.069 A 
HETATM    9  C   UNL     1       2.153   0.765  -0.034  1.00  0.00     0.039 A 
HETATM   10  H   UNL     1      -1.879   1.968  -0.097  1.00  0.00     0.165 HD
ENDROOT
BRANCH   1  11
HETATM   11  C   UNL     1      -2.053  -2.619  -0.005  1.00  0.00     0.274 C 
BRANCH  11  12
HETATM   12  N   UNL     1      -1.583  -3.279   1.224  1.00  0.00    -0.075 N 
HETATM   13  C   UNL     1      -2.097  -2.619   2.427  1.00  0.00     0.269 C 
HETATM   14  C   UNL     1      -1.976  -4.688   1.228  1.00  0.00     0.269 C 
HETATM   15  H   UNL     1      -0.565  -3.208   1.235  1.00  0.00     0.279 HD
ENDBRANCH  11  12
ENDBRANCH   1  11
BRANCH   8  16
HETATM   16  O   UNL     1       3.367  -1.375  -0.016  1.00  0.00    -0.356 OA
HETATM   17  C   UNL     1       4.598  -0.666  -0.019  1.00  0.00     0.210 C 
ENDBRANCH   8  16
TORSDOF 3
