REMARK  2 active torsions:
REMARK  status: ('A' for Active; 'I' for Inactive)
REMARK    1  A    between atoms: C_1  and  C_5 
REMARK    2  A    between atoms: C_5  and  C_7 
ROOT
HETATM    1  N   UNL     1       0.401  -3.816   2.630  1.00  0.00    -0.375 N 
ATOM      2  HN  UNL     1       0.192  -4.775   2.353  1.00  0.00     0.164 HD
HETATM    3  C   UNL     1       0.419  -1.475   2.118  1.00  0.00    -0.033 A 
HETATM    4  C   UNL     1       0.143  -2.804   1.759  1.00  0.00     0.095 A 
HETATM    5  C   UNL     1       0.931  -3.583   3.861  1.00  0.00     0.087 A 
HETATM    6  C   UNL     1       0.967  -1.221   3.384  1.00  0.00     0.010 A 
HETATM    7  C   UNL     1       1.224  -2.278   4.259  1.00  0.00     0.018 A 
ENDROOT
BRANCH   3   8
HETATM    8  C   UNL     1       0.139  -0.348   1.160  1.00  0.00     0.153 C 
BRANCH   8   9
HETATM    9  C   UNL     1      -1.321  -0.281   0.819  1.00  0.00     0.176 C 
HETATM   10  O   UNL     1      -1.686  -0.412  -0.341  1.00  0.00    -0.648 OA
HETATM   11  O   UNL     1      -2.230  -0.070   1.793  1.00  0.00    -0.648 OA
ENDBRANCH   8   9
ENDBRANCH   3   8
TORSDOF 2
