REMARK  1 active torsions:
REMARK  status: ('A' for Active; 'I' for Inactive)
REMARK    1  A    between atoms: C_1  and  C_2 
ROOT
HETATM    1  C   UNL     1      -0.158  -1.288  -0.005  1.00  0.00     0.071 A 
HETATM    2  C   UNL     1       0.714  -0.210   0.001  1.00  0.00     0.065 A 
HETATM    3  C   UNL     1      -1.466  -0.714  -0.001  1.00  0.00     0.045 A 
HETATM    4  O   UNL     1       0.015   0.964   0.007  1.00  0.00    -0.326 OA
HETATM    5  C   UNL     1      -1.303   0.648   0.006  1.00  0.00     0.143 A 
HETATM    6  C   UNL     1       2.185  -0.054   0.000  1.00  0.00     0.078 C 
ENDROOT
BRANCH   1   7
HETATM    7  C   UNL     1       0.196  -2.689  -0.012  1.00  0.00     0.211 C 
HETATM    8  O   UNL     1       1.325  -3.153  -0.017  1.00  0.00    -0.644 OA
HETATM    9  O   UNL     1      -0.872  -3.520  -0.015  1.00  0.00    -0.644 OA
ENDBRANCH   1   7
TORSDOF 1
