REMARK  2 active torsions:
REMARK  status: ('A' for Active; 'I' for Inactive)
REMARK    1  A    between atoms: C_1  and  N_6 
REMARK    2  A    between atoms: C_2  and  C_3 
ROOT
HETATM    1  C   UNL     1      -0.275   1.220  -0.112  1.00  0.00     0.104 A 
HETATM    2  C   UNL     1      -1.144  -1.408  -0.401  1.00  0.00     0.065 A 
HETATM    3  N   UNL     1       0.588   0.277  -0.566  1.00  0.00    -0.354 N 
ATOM      4  HN  UNL     1       1.551   0.519  -0.798  1.00  0.00     0.166 HD
HETATM    5  C   UNL     1      -1.599   0.878   0.229  1.00  0.00     0.073 A 
HETATM    6  C   UNL     1      -2.027  -0.443   0.084  1.00  0.00     0.044 A 
HETATM    7  C   UNL     1       0.140  -0.995  -0.704  1.00  0.00     0.105 A 
HETATM    8 CL   UNL     1      -2.759   2.042   0.768  1.00  0.00    -0.081 Cl
ENDROOT
BRANCH   1   9
HETATM    9  N   UNL     1       0.165   2.554  -0.024  1.00  0.00    -0.266 NA
HETATM   10  C   UNL     1       1.221   2.918  -0.974  1.00  0.00     0.098 C 
HETATM   11  C   UNL     1       0.938   4.288  -1.583  1.00  0.00     0.042 C 
HETATM   12  C   UNL     1       0.558   5.424  -0.628  1.00  0.00     0.233 C 
HETATM   13  N   UNL     1       1.058   5.349   0.743  1.00  0.00    -0.074 N 
HETATM   14  C   UNL     1       0.222   4.458   1.570  1.00  0.00     0.247 C 
HETATM   15  H   UNL     1       2.013   4.991   0.730  1.00  0.00     0.277 HD
HETATM   16  H   UNL     1       1.030   6.285   1.148  1.00  0.00     0.277 HD
HETATM   17  C   UNL     1       0.462   2.948   1.369  1.00  0.00     0.124 C 
ENDBRANCH   1   9
BRANCH   2  18
HETATM   18  C   UNL     1      -1.540  -2.834  -0.615  1.00  0.00     0.418 C 
HETATM   19  F   UNL     1      -2.832  -3.094  -0.278  1.00  0.00    -0.166 F 
HETATM   20  F   UNL     1      -1.406  -3.221  -1.912  1.00  0.00    -0.166 F 
HETATM   21  F   UNL     1      -0.782  -3.699   0.115  1.00  0.00    -0.166 F 
ENDBRANCH   2  18
TORSDOF 2
