REMARK  0 active torsions:
REMARK  status: ('A' for Active; 'I' for Inactive)
ROOT
HETATM    1  N   UNL     1       2.786   0.877   0.002  1.00  0.00    -0.071 N 
HETATM    2  C   UNL     1      -0.270   0.848  -0.165  1.00  0.00    -0.026 A 
HETATM    3  C   UNL     1      -0.313  -0.799  -0.072  1.00  0.00    -0.049 A 
HETATM    4  C   UNL     1       1.330   1.796  -0.159  1.00  0.00     0.271 A 
HETATM    5  C   UNL     1       2.891  -0.843   0.108  1.00  0.00     0.237 A 
HETATM    6  C   UNL     1       1.231  -1.809   0.039  1.00  0.00     0.066 A 
HETATM    7  C   UNL     1      -1.488   1.511  -0.226  1.00  0.00     0.009 A 
HETATM    8  C   UNL     1      -1.563  -1.399  -0.063  1.00  0.00     0.007 A 
HETATM    9  C   UNL     1      -2.686   0.787  -0.192  1.00  0.00     0.001 A 
HETATM   10  C   UNL     1      -2.722  -0.617  -0.113  1.00  0.00     0.001 A 
HETATM   11  H   UNL     1       3.230   1.225   0.852  1.00  0.00     0.277 HD
HETATM   12  H   UNL     1       3.186   1.020  -0.925  1.00  0.00     0.277 HD
ENDROOT
TORSDOF 0
