REMARK  1 active torsions:
REMARK  status: ('A' for Active; 'I' for Inactive)
REMARK    1  A    between atoms: C_4  and  N_6 
ROOT
HETATM    1  C   UNL     1       1.245  -0.712   0.072  1.00  0.00     0.109 A 
HETATM    2  C   UNL     1       2.514  -1.370   0.118  1.00  0.00     0.105 C 
HETATM    3  N   UNL     1       3.526  -1.938   0.186  1.00  0.00    -0.191 NA
HETATM    4  C   UNL     1       0.040  -1.438   0.101  1.00  0.00     0.049 A 
HETATM    5  C   UNL     1       1.215   0.684   0.031  1.00  0.00     0.139 A 
HETATM    6  F   UNL     1       2.358   1.388   0.018  1.00  0.00    -0.204 F 
HETATM    7  C   UNL     1      -1.186   0.672  -0.022  1.00  0.00     0.005 A 
HETATM    8  C   UNL     1      -1.167  -0.726   0.008  1.00  0.00     0.031 A 
HETATM    9  C   UNL     1       0.011   1.379  -0.008  1.00  0.00     0.044 A 
ENDROOT
BRANCH   4  10
HETATM   10  N   UNL     1      -0.004  -2.838  -0.012  1.00  0.00    -0.398 N 
HETATM   11  H   UNL     1       0.826  -3.363   0.049  1.00  0.00     0.156 HD
HETATM   12  H   UNL     1      -0.865  -3.294  -0.154  1.00  0.00     0.156 HD
ENDBRANCH   4  10
TORSDOF 1
