REMARK  1 active torsions:
REMARK  status: ('A' for Active; 'I' for Inactive)
REMARK    1  A    between atoms: N_1  and  C_2 
ROOT
HETATM    1  C   UNL     1       2.470  -0.024   1.063  1.00  0.00     0.051 A 
HETATM    2  N   UNL     1       1.236   2.965   2.627  1.00  0.00    -0.191 NA
HETATM    3  C   UNL     1       1.900   2.043   2.370  1.00  0.00     0.102 C 
HETATM    4  C   UNL     1       2.768   0.947   2.052  1.00  0.00     0.071 A 
HETATM    5  C   UNL     1       3.416  -1.061   0.918  1.00  0.00     0.031 A 
HETATM    6  C   UNL     1       3.943   0.865   2.828  1.00  0.00     0.025 A 
HETATM    7  C   UNL     1       4.582  -1.140   1.691  1.00  0.00     0.002 A 
HETATM    8  C   UNL     1       4.846  -0.174   2.647  1.00  0.00     0.002 A 
ENDROOT
BRANCH   1   9
HETATM    9  N   UNL     1       1.340  -0.014   0.256  1.00  0.00    -0.380 N 
HETATM   10  C   UNL     1       0.700  -1.248  -0.218  1.00  0.00     0.123 C 
HETATM   11  C   UNL     1      -0.765  -1.252   0.228  1.00  0.00     0.020 C 
HETATM   12  C   UNL     1      -1.496   0.021  -0.200  1.00  0.00     0.003 C 
HETATM   13  C   UNL     1      -0.731   1.274   0.226  1.00  0.00     0.020 C 
HETATM   14  C   UNL     1       0.719   1.213  -0.255  1.00  0.00     0.123 C 
ENDBRANCH   1   9
TORSDOF 1
