REMARK  0 active torsions:
REMARK  status: ('A' for Active; 'I' for Inactive)
ROOT
HETATM    1  C   UNL     1       2.297   0.319   0.013  1.00  0.00     0.297 A 
HETATM    2  C   UNL     1       0.001  -0.372   0.020  1.00  0.00     0.049 A 
HETATM    3  N   UNL     1       1.455   1.414   0.023  1.00  0.00    -0.319 N 
HETATM    4  C   UNL     1       1.357  -0.921   0.017  1.00  0.00     0.252 A 
HETATM    5  C   UNL     1       0.121   1.018   0.019  1.00  0.00     0.049 A 
HETATM    6  C   UNL     1      -1.219  -1.014   0.013  1.00  0.00     0.060 A 
HETATM    7  O   UNL     1       3.507   0.308  -0.002  1.00  0.00    -0.264 OA
HETATM    8  O   UNL     1       1.674  -2.087   0.014  1.00  0.00    -0.281 OA
HETATM    9  C   UNL     1      -0.991   1.834   0.005  1.00  0.00     0.033 A 
HETATM   10  C   UNL     1      -2.344  -0.197  -0.004  1.00  0.00     0.117 A 
HETATM   11  C   UNL     1      -2.243   1.207  -0.010  1.00  0.00     0.044 A 
HETATM   12  F   UNL     1      -3.560  -0.758  -0.019  1.00  0.00    -0.206 F 
HETATM   13  H   UNL     1       1.758   2.351   0.032  1.00  0.00     0.169 HD
ENDROOT
TORSDOF 0
