REMARK  1 active torsions:
REMARK  status: ('A' for Active; 'I' for Inactive)
REMARK    1  A    between atoms: C_2  and  O_10 
ROOT
HETATM    1  C   UNL     1      -0.003  -0.775   0.014  1.00  0.00     0.080 A 
HETATM    2  C   UNL     1       1.247  -1.381   0.029  1.00  0.00     0.156 A 
HETATM    3  N   UNL     1       2.424  -0.741   0.033  1.00  0.00    -0.332 N 
ATOM      4  HN  UNL     1       3.319  -1.231   0.044  1.00  0.00     0.168 HD
HETATM    5  N   UNL     1       1.193   1.306   0.002  1.00  0.00    -0.351 N 
ATOM      6  HN  UNL     1       1.206   2.326  -0.007  1.00  0.00     0.166 HD
HETATM    7  C   UNL     1       2.329   0.592   0.022  1.00  0.00     0.182 A 
HETATM    8  C   UNL     1      -1.249  -1.436   0.011  1.00  0.00     0.133 A 
HETATM    9  C   UNL     1       0.040   0.621  -0.005  1.00  0.00     0.050 A 
HETATM   10  F   UNL     1      -1.317  -2.775   0.044  1.00  0.00    -0.205 F 
HETATM   11  C   UNL     1      -2.400   0.665  -0.054  1.00  0.00     0.005 A 
HETATM   12  C   UNL     1      -2.441  -0.722  -0.024  1.00  0.00     0.043 A 
HETATM   13  C   UNL     1      -1.164   1.319  -0.039  1.00  0.00     0.030 A 
ENDROOT
BRANCH   2  14
HETATM   14  O   UNL     1       1.391  -2.731   0.025  1.00  0.00    -0.345 OA
HETATM   15  H   UNL     1       0.634  -3.283   0.022  1.00  0.00     0.219 HD
ENDBRANCH   2  14
TORSDOF 1
