REMARK  3 active torsions:
REMARK  status: ('A' for Active; 'I' for Inactive)
REMARK    1  A    between atoms: C_1  and  C_4 
REMARK       I    between atoms: C_4  and  N_7 
REMARK    2  A    between atoms: N_7  and  C_12 
REMARK    3  A    between atoms: N_7  and  C_13 
ROOT
HETATM    1  C   UNL     1      -0.009  -1.098   0.213  1.00  0.00     0.107 A 
HETATM    2  N   UNL     1      -0.946  -0.078   0.086  1.00  0.00    -0.355 N 
HETATM    3  C   UNL     1       1.228  -0.447   0.263  1.00  0.00    -0.022 A 
HETATM    4  C   UNL     1       0.994   0.970   0.152  1.00  0.00    -0.032 A 
HETATM    5  C   UNL     1      -0.370   1.157   0.080  1.00  0.00     0.012 A 
HETATM    6  C   UNL     1       2.623  -0.971   0.339  1.00  0.00     0.051 C 
HETATM    7  C   UNL     1       2.015   2.054   0.081  1.00  0.00     0.050 C 
HETATM    8  C   UNL     1      -1.160   2.406  -0.035  1.00  0.00     0.068 C 
HETATM    9  H   UNL     1      -1.915  -0.230   0.009  1.00  0.00     0.166 HD
ENDROOT
BRANCH   1  10
HETATM   10  C   UNL     1      -0.546  -2.467   0.142  1.00  0.00     0.270 C 
HETATM   11  N   UNL     1       0.032  -3.575   0.777  1.00  0.00    -0.347 N 
HETATM   12  O   UNL     1      -1.608  -2.627  -0.475  1.00  0.00    -0.266 OA
BRANCH  11  13
HETATM   13  C   UNL     1      -0.623  -4.883   0.590  1.00  0.00     0.121 C 
HETATM   14  C   UNL     1      -1.632  -5.214   1.685  1.00  0.00     0.026 C 
ENDBRANCH  11  13
BRANCH  11  15
HETATM   15  C   UNL     1       1.072  -3.519   1.798  1.00  0.00     0.121 C 
HETATM   16  C   UNL     1       2.317  -4.292   1.377  1.00  0.00     0.026 C 
ENDBRANCH  11  15
ENDBRANCH   1  10
TORSDOF 3
