REMARK  2 active torsions:
REMARK  status: ('A' for Active; 'I' for Inactive)
REMARK    1  A    between atoms: C_1  and  C_6 
REMARK    2  A    between atoms: C_7  and  O_11 
ROOT
HETATM    1  C   UNL     1      -0.415  -1.136   0.003  1.00  0.00     0.138 A 
HETATM    2  N   UNL     1       0.878  -0.671  -0.005  1.00  0.00    -0.290 N 
HETATM    3  C   UNL     1      -1.218  -0.003   0.002  1.00  0.00     0.093 A 
HETATM    4  N   UNL     1       0.948   0.678  -0.009  1.00  0.00    -0.278 N 
ATOM      5  HN  UNL     1       1.782   1.265  -0.015  1.00  0.00     0.189 HD
HETATM    6  C   UNL     1      -0.318   1.059  -0.004  1.00  0.00     0.157 A 
HETATM    7  C   UNL     1       2.139  -1.376  -0.009  1.00  0.00     0.178 C 
ENDROOT
BRANCH   1   8
HETATM    8  C   UNL     1      -0.829  -2.553   0.012  1.00  0.00     0.434 C 
HETATM    9  F   UNL     1       0.190  -3.442   0.013  1.00  0.00    -0.165 F 
HETATM   10  F   UNL     1      -1.585  -2.832   1.105  1.00  0.00    -0.165 F 
HETATM   11  F   UNL     1      -1.594  -2.843  -1.071  1.00  0.00    -0.165 F 
ENDBRANCH   1   8
BRANCH   6  12
HETATM   12  O   UNL     1      -0.552   2.372  -0.006  1.00  0.00    -0.345 OA
HETATM   13  H   UNL     1       0.164   2.976  -0.011  1.00  0.00     0.219 HD
ENDBRANCH   6  12
TORSDOF 2
