REMARK  1 active torsions:
REMARK  status: ('A' for Active; 'I' for Inactive)
REMARK    1  A    between atoms: C_1  and  C_3 
ROOT
HETATM    1  C   UNL     1       1.034   0.719  -0.002  1.00  0.00     0.026 A 
HETATM    2  N   UNL     1      -1.095   0.024   0.001  1.00  0.00    -0.374 N 
HETATM    3  C   UNL     1      -0.288   1.134   0.001  1.00  0.00     0.102 A 
HETATM    4  C   UNL     1       1.000  -0.706  -0.001  1.00  0.00     0.033 A 
HETATM    5  C   UNL     1      -0.318  -1.103   0.001  1.00  0.00     0.088 A 
HETATM    6  H   UNL     1      -2.079   0.036   0.001  1.00  0.00     0.164 HD
ENDROOT
BRANCH   1   7
HETATM    7  C   UNL     1       2.229   1.564  -0.006  1.00  0.00     0.157 C 
HETATM    8  O   UNL     1       3.357   1.070  -0.008  1.00  0.00    -0.293 OA
HETATM    9  C   UNL     1       2.056   3.062  -0.005  1.00  0.00     0.097 C 
ENDBRANCH   1   7
TORSDOF 1
