REMARK  1 active torsions:
REMARK  status: ('A' for Active; 'I' for Inactive)
REMARK    1  A    between atoms: C_1  and  C_2 
REMARK       I    between atoms: C_2  and  N_8 
ROOT
HETATM    1  C   UNL     1       0.121   1.272  -0.007  1.00  0.00     0.072 A 
HETATM    2  S   UNL     1      -1.069   0.035  -0.011  1.00  0.00    -0.097 SA
HETATM    3  C   UNL     1       1.395   0.733  -0.002  1.00  0.00     0.025 A 
HETATM    4  C   UNL     1       0.112  -1.200  -0.007  1.00  0.00     0.050 A 
HETATM    5  C   UNL     1       1.390  -0.692  -0.002  1.00  0.00     0.009 A 
ENDROOT
BRANCH   1   6
HETATM    6  C   UNL     1      -0.225   2.684  -0.009  1.00  0.00     0.256 C 
HETATM    7  O   UNL     1       0.599   3.595  -0.007  1.00  0.00    -0.267 OA
HETATM    8  N   UNL     1      -1.558   2.993  -0.012  1.00  0.00    -0.366 N 
HETATM    9  H   UNL     1      -2.230   2.273  -0.014  1.00  0.00     0.159 HD
HETATM   10  H   UNL     1      -1.845   3.934  -0.014  1.00  0.00     0.159 HD
ENDBRANCH   1   6
TORSDOF 1
