REMARK  1 active torsions:
REMARK  status: ('A' for Active; 'I' for Inactive)
REMARK    1  A    between atoms: C_6  and  C_7 
REMARK       I    between atoms: C_7  and  N_10 
ROOT
HETATM    1  C   UNL     1      -0.692   0.833   0.049  1.00  0.00     0.005 A 
HETATM    2  C   UNL     1      -1.158  -0.507   0.013  1.00  0.00     0.027 A 
HETATM    3  C   UNL     1       0.001  -1.420  -0.006  1.00  0.00     0.194 A 
HETATM    4  C   UNL     1       0.778   0.775   0.040  1.00  0.00    -0.010 A 
HETATM    5  C   UNL     1       1.195  -0.572  -0.003  1.00  0.00     0.026 A 
HETATM    6  C   UNL     1      -1.655   1.851   0.042  1.00  0.00     0.043 A 
HETATM    7  O   UNL     1      -0.036  -2.632  -0.040  1.00  0.00    -0.287 OA
HETATM    8  C   UNL     1      -2.487  -0.891  -0.034  1.00  0.00     0.016 A 
HETATM    9  C   UNL     1       1.772   1.741   0.032  1.00  0.00     0.013 A 
HETATM   10  C   UNL     1       2.517  -0.990  -0.061  1.00  0.00     0.016 A 
HETATM   11  C   UNL     1      -3.022   1.472  -0.011  1.00  0.00     0.018 A 
HETATM   12  C   UNL     1      -3.429   0.123  -0.051  1.00  0.00     0.002 A 
HETATM   13  C   UNL     1       3.124   1.350  -0.022  1.00  0.00     0.001 A 
HETATM   14  C   UNL     1       3.495  -0.002  -0.074  1.00  0.00     0.001 A 
ENDROOT
BRANCH   6  15
HETATM   15  C   UNL     1      -1.330   3.306   0.142  1.00  0.00     0.250 C 
HETATM   16  O   UNL     1      -0.339   3.723   0.733  1.00  0.00    -0.268 OA
HETATM   17  N   UNL     1      -2.188   4.219  -0.408  1.00  0.00    -0.366 N 
HETATM   18  H   UNL     1      -2.991   3.912  -0.888  1.00  0.00     0.159 HD
HETATM   19  H   UNL     1      -2.002   5.182  -0.325  1.00  0.00     0.159 HD
ENDBRANCH   6  15
TORSDOF 1
