REMARK  1 active torsions:
REMARK  status: ('A' for Active; 'I' for Inactive)
REMARK    1  A    between atoms: C_2  and  C_5 
ROOT
HETATM    1  C   UNL     1      -0.032   0.706   0.027  1.00  0.00     0.103 A 
HETATM    2  C   UNL     1      -2.451   0.732   0.039  1.00  0.00     0.012 A 
HETATM    3  C   UNL     1      -1.231   1.418   0.073  1.00  0.00     0.054 A 
HETATM    4  C   UNL     1      -0.039  -0.691  -0.027  1.00  0.00     0.102 A 
HETATM    5  O   UNL     1       1.120   1.450   0.049  1.00  0.00    -0.346 OA
HETATM    6  O   UNL     1       1.103  -1.448  -0.051  1.00  0.00    -0.346 OA
HETATM    7  C   UNL     1      -2.453  -0.669  -0.034  1.00  0.00     0.018 A 
HETATM    8  C   UNL     1      -1.249  -1.378  -0.070  1.00  0.00     0.040 A 
HETATM    9  C   UNL     1       2.256   0.672  -0.342  1.00  0.00     0.202 C 
HETATM   10  C   UNL     1       2.247  -0.684   0.345  1.00  0.00     0.202 C 
ENDROOT
BRANCH   2  11
HETATM   11  C   UNL     1      -3.761   1.447   0.076  1.00  0.00     0.155 C 
HETATM   12  O   UNL     1      -4.810   0.807   0.047  1.00  0.00    -0.293 OA
HETATM   13  C   UNL     1      -3.769   2.952   0.146  1.00  0.00     0.096 C 
ENDBRANCH   2  11
TORSDOF 1
