REMARK  1 active torsions:
REMARK  status: ('A' for Active; 'I' for Inactive)
REMARK    1  A    between atoms: N_7  and  O_11 
ROOT
HETATM    1  N   UNL     1       1.299   1.141  -3.373  1.00  0.00    -0.066 N 
HETATM    2  C   UNL     1       1.667   1.679  -2.058  1.00  0.00     0.193 C 
HETATM    3  C   UNL     1       1.045   2.377  -4.137  1.00  0.00     0.193 C 
HETATM    4  C   UNL     1      -0.455   3.052  -2.245  1.00  0.00     0.013 C 
HETATM    5  C   UNL     1       0.375   2.160  -1.350  1.00  0.00     0.087 C 
HETATM    6  C   UNL     1      -0.364   2.861  -3.748  1.00  0.00     0.087 C 
HETATM    7  N   UNL     1      -1.308   3.866  -1.722  1.00  0.00    -0.277 N 
ATOM      8  HN  UNL     1      -1.386   3.921  -0.706  1.00  0.00     0.193 HD
HETATM    9  C   UNL     1       2.622   2.833  -2.362  1.00  0.00     0.036 C 
HETATM   10  C   UNL     1       2.091   3.416  -3.665  1.00  0.00     0.036 C 
HETATM   11  C   UNL     1       2.331   0.304  -4.004  1.00  0.00     0.270 C 
HETATM   12  H   UNL     1       0.509   0.497  -3.321  1.00  0.00     0.280 HD
ENDROOT
BRANCH   7  13
HETATM   13  O   UNL     1      -2.079   4.626  -2.467  1.00  0.00    -0.290 OA
HETATM   14  H   UNL     1      -2.691   5.210  -2.064  1.00  0.00     0.244 HD
ENDBRANCH   7  13
TORSDOF 1
