REMARK  2 active torsions:
REMARK  status: ('A' for Active; 'I' for Inactive)
REMARK    1  A    between atoms: C_2  and  C_7 
REMARK    2  A    between atoms: C_7  and  O_8 
ROOT
HETATM    1  C   UNL     1       0.254  -0.709   0.073  1.00  0.00     0.110 A 
HETATM    2  C   UNL     1       1.469  -1.412   0.163  1.00  0.00     0.001 A 
HETATM    3  C   UNL     1       0.261   0.691  -0.073  1.00  0.00     0.102 A 
HETATM    4  O   UNL     1      -0.892  -1.467   0.145  1.00  0.00    -0.348 OA
HETATM    5  O   UNL     1      -0.847   1.499  -0.125  1.00  0.00    -0.348 OA
HETATM    6  C   UNL     1      -2.782   0.034  -0.085  1.00  0.00     0.053 C 
HETATM    7  C   UNL     1       2.678  -0.702   0.055  1.00  0.00     0.012 A 
HETATM    8  C   UNL     1      -1.919  -1.027  -0.743  1.00  0.00     0.178 C 
HETATM    9  C   UNL     1      -1.941   1.048   0.671  1.00  0.00     0.178 C 
HETATM   10  C   UNL     1       2.681   0.678  -0.138  1.00  0.00     0.003 A 
HETATM   11  C   UNL     1       1.475   1.370  -0.202  1.00  0.00     0.040 A 
ENDROOT
BRANCH   2  12
HETATM   12  C   UNL     1       1.521  -2.906   0.356  1.00  0.00     0.205 C 
BRANCH  12  13
HETATM   13  O   UNL     1       2.182  -3.522  -0.745  1.00  0.00    -0.396 OA
HETATM   14  H   UNL     1       1.696  -3.330  -1.563  1.00  0.00     0.209 HD
ENDBRANCH  12  13
ENDBRANCH   2  12
TORSDOF 2
