REMARK  2 active torsions:
REMARK  status: ('A' for Active; 'I' for Inactive)
REMARK    1  A    between atoms: C_2  and  C_6 
REMARK    2  A    between atoms: C_6  and  O_7 
ROOT
HETATM    1  C   UNL     1      -0.016   0.715   0.013  1.00  0.00     0.110 A 
HETATM    2  C   UNL     1      -1.221   1.432   0.050  1.00  0.00     0.001 A 
HETATM    3  C   UNL     1      -0.030  -0.687  -0.035  1.00  0.00     0.102 A 
HETATM    4  O   UNL     1       1.153   1.437   0.034  1.00  0.00    -0.346 OA
HETATM    5  O   UNL     1       1.107  -1.456  -0.050  1.00  0.00    -0.346 OA
HETATM    6  C   UNL     1      -2.432   0.717   0.017  1.00  0.00     0.012 A 
HETATM    7  C   UNL     1      -2.441  -0.677  -0.052  1.00  0.00     0.003 A 
HETATM    8  C   UNL     1      -1.239  -1.379  -0.081  1.00  0.00     0.040 A 
HETATM    9  C   UNL     1       2.279   0.643  -0.356  1.00  0.00     0.202 C 
HETATM   10  C   UNL     1       2.256  -0.702   0.346  1.00  0.00     0.202 C 
ENDROOT
BRANCH   2  11
HETATM   11  C   UNL     1      -1.259   2.935   0.127  1.00  0.00     0.205 C 
BRANCH  11  12
HETATM   12  O   UNL     1      -1.933   3.468  -1.009  1.00  0.00    -0.396 OA
HETATM   13  H   UNL     1      -1.462   3.207  -1.816  1.00  0.00     0.209 HD
ENDBRANCH  11  12
ENDBRANCH   2  11
TORSDOF 2
