REMARK  2 active torsions:
REMARK  status: ('A' for Active; 'I' for Inactive)
REMARK    1  A    between atoms: C_7  and  C_11 
REMARK    2  A    between atoms: N_9  and  C_11 
ROOT
HETATM    1  N   UNL     1      -1.198   1.368  -0.009  1.00  0.00    -0.365 N 
ATOM      2  HN  UNL     1      -1.207   2.388  -0.014  1.00  0.00     0.165 HD
HETATM    3  C   UNL     1       0.003  -0.725   0.011  1.00  0.00    -0.009 A 
HETATM    4  C   UNL     1      -0.039   0.685  -0.003  1.00  0.00     0.042 A 
HETATM    5  C   UNL     1       1.239  -1.398   0.027  1.00  0.00     0.022 A 
HETATM    6  C   UNL     1       1.165   1.374  -0.010  1.00  0.00     0.031 A 
HETATM    7  C   UNL     1       2.449  -0.689   0.011  1.00  0.00    -0.032 A 
HETATM    8  C   UNL     1       2.397   0.708  -0.007  1.00  0.00     0.011 A 
HETATM    9  C   UNL     1      -2.349   0.661  -0.008  1.00  0.00     0.088 A 
HETATM   10  C   UNL     1      -1.212  -1.421   0.007  1.00  0.00     0.015 A 
HETATM   11  C   UNL     1      -2.409  -0.719  -0.003  1.00  0.00     0.018 A 
ENDROOT
BRANCH   7  12
HETATM   12  C   UNL     1       3.774  -1.416   0.036  1.00  0.00     0.270 C 
BRANCH  12  13
HETATM   13  N   UNL     1       3.948  -2.257  -1.148  1.00  0.00    -0.075 N 
HETATM   14  C   UNL     1       5.217  -2.968  -1.103  1.00  0.00     0.267 C 
HETATM   15  H   UNL     1       3.926  -1.668  -1.981  1.00  0.00     0.277 HD
HETATM   16  H   UNL     1       3.193  -2.942  -1.173  1.00  0.00     0.277 HD
ENDBRANCH  12  13
ENDBRANCH   7  12
TORSDOF 2
