REMARK  1 active torsions:
REMARK  status: ('A' for Active; 'I' for Inactive)
REMARK    1  A    between atoms: CA_3  and  C_4 
ROOT
HETATM    1  N   UNL     1      -1.192   1.387  -0.004  1.00  0.00    -0.350 N 
ATOM      2  HN  UNL     1      -1.196   2.407  -0.006  1.00  0.00     0.166 HD
HETATM    3  CA  UNL     1      -2.354   0.681  -0.001  1.00  0.00     0.110 A 
HETATM    4  C   UNL     1      -0.037   0.699  -0.004  1.00  0.00     0.043 A 
HETATM    5  C   UNL     1      -2.409  -0.706  -0.004  1.00  0.00     0.037 A 
HETATM    6  C   UNL     1       0.005  -0.713  -0.001  1.00  0.00    -0.009 A 
HETATM    7  C   UNL     1      -1.210  -1.410  -0.004  1.00  0.00     0.016 A 
HETATM    8  C   UNL     1       1.169   1.387  -0.006  1.00  0.00     0.030 A 
HETATM    9  C   UNL     1       1.238  -1.387   0.005  1.00  0.00     0.013 A 
HETATM   10  C   UNL     1       2.398   0.720  -0.000  1.00  0.00     0.002 A 
HETATM   11  C   UNL     1       2.432  -0.670   0.007  1.00  0.00     0.001 A 
ENDROOT
BRANCH   3  12
HETATM   12  C   UNL     1      -3.641   1.440   0.006  1.00  0.00     0.226 C 
HETATM   13  O   UNL     1      -4.756   0.942   0.009  1.00  0.00    -0.643 OA
HETATM   14  OXT UNL     1      -3.483   2.778   0.012  1.00  0.00    -0.643 OA
ENDBRANCH   3  12
TORSDOF 1
