REMARK  2 active torsions:
REMARK  status: ('A' for Active; 'I' for Inactive)
REMARK    1  A    between atoms: C_8  and  C_11 
REMARK    2  A    between atoms: O_10  and  C_11 
ROOT
HETATM    1  C   UNL     1      -0.192  -0.805   0.010  1.00  0.00     0.000 A 
HETATM    2  C   UNL     1      -0.245   0.582  -0.007  1.00  0.00     0.085 A 
HETATM    3  C   UNL     1      -2.319  -0.108  -0.023  1.00  0.00     0.143 A 
HETATM    4  O   UNL     1      -1.540   1.005  -0.024  1.00  0.00    -0.322 OA
HETATM    5  C   UNL     1      -1.542  -1.245   0.001  1.00  0.00     0.039 A 
HETATM    6  C   UNL     1       1.070  -1.428   0.028  1.00  0.00     0.023 A 
HETATM    7  C   UNL     1       0.876   1.407  -0.008  1.00  0.00     0.039 A 
HETATM    8  C   UNL     1       2.233  -0.631   0.023  1.00  0.00    -0.034 A 
HETATM    9  C   UNL     1       2.123   0.769   0.002  1.00  0.00     0.012 A 
ENDROOT
BRANCH   8  10
HETATM   10  C   UNL     1       3.587  -1.295   0.016  1.00  0.00     0.202 C 
BRANCH  10  11
HETATM   11  O   UNL     1       3.745  -2.107   1.170  1.00  0.00    -0.396 OA
HETATM   12  H   UNL     1       4.619  -2.528   1.152  1.00  0.00     0.209 HD
ENDBRANCH  10  11
ENDBRANCH   8  10
TORSDOF 2
