REMARK  3 active torsions:
REMARK  status: ('A' for Active; 'I' for Inactive)
REMARK    1  A    between atoms: C_1  and  C_5 
REMARK    2  A    between atoms: C_6  and  C_12 
REMARK    3  A    between atoms: C_12  and  N_13 
ROOT
HETATM    1  C   UNL     1       0.177  -1.171  -0.029  1.00  0.00     0.091 A 
HETATM    2  N   UNL     1       1.371  -0.609  -0.011  1.00  0.00    -0.351 N 
ATOM      3  HN  UNL     1       2.254  -1.119   0.007  1.00  0.00     0.166 HD
HETATM    4  S   UNL     1      -1.142  -0.060  -0.061  1.00  0.00    -0.081 SA
HETATM    5  C   UNL     1       1.255   0.780  -0.020  1.00  0.00     0.042 A 
HETATM    6  C   UNL     1      -0.045   1.247  -0.047  1.00  0.00     0.078 A 
ENDROOT
BRANCH   1   7
HETATM    7  C   UNL     1       0.011  -2.609  -0.011  1.00  0.00     0.038 A 
HETATM    8  S   UNL     1      -1.523  -3.388  -0.081  1.00  0.00    -0.099 SA
HETATM    9  C   UNL     1      -0.829  -4.945  -0.001  1.00  0.00     0.050 A 
HETATM   10  C   UNL     1       0.542  -4.894   0.076  1.00  0.00     0.008 A 
HETATM   11  C   UNL     1       1.026  -3.551   0.067  1.00  0.00     0.022 A 
ENDBRANCH   1   7
BRANCH   5  12
HETATM   12  C   UNL     1       2.489   1.623  -0.011  1.00  0.00     0.286 C 
BRANCH  12  13
HETATM   13  N   UNL     1       2.899   1.871  -1.390  1.00  0.00    -0.074 N 
HETATM   14  H   UNL     1       3.086   0.983  -1.855  1.00  0.00     0.274 HD
HETATM   15  H   UNL     1       3.745   2.442  -1.395  1.00  0.00     0.274 HD
HETATM   16  H   UNL     1       2.154   2.363  -1.882  1.00  0.00     0.274 HD
ENDBRANCH  12  13
ENDBRANCH   5  12
TORSDOF 3
