REMARK  0 active torsions:
REMARK  status: ('A' for Active; 'I' for Inactive)
ROOT
HETATM    1  C   UNL     1       1.081  -0.052  -0.064  1.00  0.00    -0.078 C 
HETATM    2  C   UNL     1      -0.120  -0.066  -0.111  1.00  0.00     0.018 C 
HETATM    3  C   UNL     1       4.617  -1.226   0.135  1.00  0.00     0.060 A 
HETATM    4  N   UNL     1       5.280  -2.399   0.177  1.00  0.00    -0.363 N 
ATOM      5  HN  UNL     1       4.790  -3.294   0.174  1.00  0.00     0.165 HD
HETATM    6  N   UNL     1       6.656   0.064   0.205  1.00  0.00    -0.363 N 
ATOM      7  HN  UNL     1       7.160   0.951   0.224  1.00  0.00     0.165 HD
HETATM    8  C   UNL     1       5.311   0.012   0.142  1.00  0.00     0.059 A 
HETATM    9  C   UNL     1       3.228  -1.224   0.075  1.00  0.00     0.052 A 
HETATM   10  C   UNL     1       2.510  -0.029   0.001  1.00  0.00     0.019 A 
HETATM   11  C   UNL     1       4.584   1.193   0.071  1.00  0.00     0.033 A 
HETATM   12  C   UNL     1       3.190   1.184  -0.010  1.00  0.00     0.023 A 
HETATM   13  C   UNL     1       6.628  -2.326   0.223  1.00  0.00     0.105 A 
HETATM   14  C   UNL     1       7.301  -1.122   0.242  1.00  0.00     0.105 A 
ENDROOT
TORSDOF 0
