REMARK  2 active torsions:
REMARK  status: ('A' for Active; 'I' for Inactive)
REMARK    1  A    between atoms: C_1  and  C_8 
REMARK    2  A    between atoms: C_4  and  C_7 
ROOT
HETATM    1  C   UNK     1       1.328   0.765   0.000  1.00  0.00     0.117 A 
HETATM    2  N   UNK     1       1.413  -0.630   0.027  1.00  0.00    -0.344 N 
ATOM      3  HN  UNK     1       2.285  -1.157   0.068  1.00  0.00     0.167 HD
HETATM    4  C   UNK     1       0.209  -1.171  -0.008  1.00  0.00     0.091 A 
HETATM    5  S   UNK     1      -1.086  -0.036  -0.070  1.00  0.00    -0.080 SA
HETATM    6  C   UNK     1       0.035   1.251  -0.044  1.00  0.00     0.088 A 
ENDROOT
BRANCH   4   7
HETATM    7  C   UNK     1       0.020  -2.606   0.007  1.00  0.00     0.038 A 
HETATM    8  S   UNK     1      -1.524  -3.358  -0.090  1.00  0.00    -0.099 SA
HETATM    9  C   UNK     1      -0.857  -4.926  -0.017  1.00  0.00     0.050 A 
HETATM   10  C   UNK     1       0.515  -4.897   0.084  1.00  0.00     0.008 A 
HETATM   11  C   UNK     1       1.019  -3.562   0.093  1.00  0.00     0.022 A 
ENDBRANCH   4   7
BRANCH   1  12
HETATM   12  C   UNK     1       2.502   1.633   0.012  1.00  0.00     0.227 C 
HETATM   13  O   UNK     1       2.473   2.857  -0.011  1.00  0.00    -0.643 OA
HETATM   14  O   UNK     1       3.689   0.989   0.043  1.00  0.00    -0.643 OA
ENDBRANCH   1  12
TORSDOF 2
