REMARK  2 active torsions:
REMARK  status: ('A' for Active; 'I' for Inactive)
REMARK    1  A    between atoms: C_1  and  C_7 
REMARK    2  A    between atoms: C_7  and  N_10 
ROOT
HETATM    1  C   UNL     1      -0.444   1.273   0.035  1.00  0.00     0.015 A 
HETATM    2  N   UNL     1      -0.640  -1.006  -0.015  1.00  0.00    -0.303 N 
ATOM      3  HN  UNL     1      -1.019  -1.953  -0.021  1.00  0.00     0.186 HD
HETATM    4  N   UNL     1       0.650  -0.636  -0.015  1.00  0.00    -0.300 N 
HETATM    5  C   UNL     1       0.831   0.723  -0.002  1.00  0.00     0.034 A 
HETATM    6  C   UNL     1      -1.316   0.148  -0.005  1.00  0.00     0.032 A 
HETATM    7  C   UNL     1       1.652  -1.677  -0.022  1.00  0.00     0.177 C 
HETATM    8  C   UNL     1       2.169   1.366  -0.029  1.00  0.00     0.070 C 
HETATM    9  C   UNL     1      -2.799   0.116  -0.043  1.00  0.00     0.070 C 
ENDROOT
BRANCH   1  10
HETATM   10  C   UNL     1      -0.822   2.711   0.100  1.00  0.00     0.272 C 
BRANCH  10  11
HETATM   11  N   UNL     1      -0.981   3.210  -1.259  1.00  0.00    -0.075 N 
HETATM   12  H   UNL     1      -0.104   3.097  -1.767  1.00  0.00     0.274 HD
HETATM   13  H   UNL     1      -1.234   4.197  -1.231  1.00  0.00     0.274 HD
HETATM   14  H   UNL     1      -1.717   2.683  -1.730  1.00  0.00     0.274 HD
ENDBRANCH  10  11
ENDBRANCH   1  10
TORSDOF 2
