REMARK  1 active torsions:
REMARK  status: ('A' for Active; 'I' for Inactive)
REMARK    1  A    between atoms: C_5  and  C_8 
ROOT
HETATM    1  N   UNL     1      -1.752   0.037   1.264  1.00  0.00    -0.364 N 
ATOM      2  HN  UNL     1      -2.384   0.033   2.064  1.00  0.00     0.165 HD
HETATM    3  N   UNL     1       3.040  -0.200   0.851  1.00  0.00    -0.191 NA
HETATM    4  C   UNL     1       1.900  -0.116   0.648  1.00  0.00     0.101 C 
HETATM    5  C   UNL     1      -2.232   0.093  -0.007  1.00  0.00     0.042 A 
HETATM    6  C   UNL     1       0.502  -0.021   0.394  1.00  0.00     0.060 A 
HETATM    7  C   UNL     1      -0.409  -0.014   1.436  1.00  0.00     0.111 A 
HETATM    8  C   UNL     1      -1.372   0.106  -1.107  1.00  0.00     0.032 A 
HETATM    9  C   UNL     1       0.006   0.047  -0.905  1.00  0.00     0.026 A 
ENDROOT
BRANCH   5  10
HETATM   10  C   UNL     1      -3.701   0.086  -0.151  1.00  0.00    -0.009 A 
HETATM   11  C   UNL     1      -4.347   0.719  -1.229  1.00  0.00     0.013 A 
HETATM   12  C   UNL     1      -5.735   0.662  -1.380  1.00  0.00     0.001 A 
HETATM   13  C   UNL     1      -6.510  -0.023  -0.450  1.00  0.00     0.000 A 
HETATM   14  C   UNL     1      -5.899  -0.645   0.635  1.00  0.00     0.001 A 
HETATM   15  C   UNL     1      -4.511  -0.586   0.783  1.00  0.00     0.013 A 
ENDBRANCH   5  10
TORSDOF 1
