REMARK  2 active torsions:
REMARK  status: ('A' for Active; 'I' for Inactive)
REMARK    1  A    between atoms: N_1  and  C_3 
REMARK    2  A    between atoms: C_2  and  C_4 
ROOT
HETATM    1  C   UNL     1      -0.721  -2.475  -0.004  1.00  0.00     0.039 A 
HETATM    2  C   UNL     1      -1.863  -4.322  -1.100  1.00  0.00     0.043 A 
HETATM    3  C   UNL     1      -1.555  -2.958  -1.023  1.00  0.00     0.048 A 
HETATM    4  C   UNL     1      -0.232  -3.371   0.959  1.00  0.00     0.030 A 
HETATM    5  C   UNL     1      -1.374  -5.203  -0.129  1.00  0.00     0.018 A 
HETATM    6  C   UNL     1      -0.565  -4.726   0.900  1.00  0.00     0.003 A 
ENDROOT
BRANCH   1   7
HETATM    7  N   UNL     1      -0.359  -1.094   0.037  1.00  0.00    -0.333 N 
HETATM    8  C   UNL     1       0.500  -0.492   0.938  1.00  0.00     0.096 A 
HETATM    9  C   UNL     1       0.602   0.849   0.646  1.00  0.00     0.019 A 
HETATM   10  C   UNL     1      -0.221   1.097  -0.468  1.00  0.00     0.019 A 
HETATM   11  C   UNL     1      -0.789  -0.104  -0.829  1.00  0.00     0.096 A 
ENDBRANCH   1   7
BRANCH   2  12
HETATM   12  C   UNL     1      -2.668  -4.875  -2.213  1.00  0.00     0.209 C 
HETATM   13  O   UNL     1      -2.992  -6.043  -2.346  1.00  0.00    -0.644 OA
HETATM   14  O   UNL     1      -2.999  -3.952  -3.133  1.00  0.00    -0.644 OA
ENDBRANCH   2  12
TORSDOF 2
