REMARK  2 active torsions:
REMARK  status: ('A' for Active; 'I' for Inactive)
REMARK    1  A    between atoms: C_5  and  C_11 
REMARK    2  A    between atoms: C_11  and  O_13 
ROOT
HETATM    1  N   UNL     1       0.290  -0.709   0.006  1.00  0.00    -0.308 N 
HETATM    2  N   UNL     1       1.565   1.133   0.026  1.00  0.00    -0.344 N 
ATOM      3  HN  UNL     1       1.867   2.107   0.036  1.00  0.00     0.167 HD
HETATM    4  C   UNL     1       0.329   0.684   0.014  1.00  0.00     0.112 A 
HETATM    5  C   UNL     1       1.602  -1.140   0.020  1.00  0.00     0.063 A 
HETATM    6  C   UNL     1       2.364   0.017   0.023  1.00  0.00     0.032 A 
HETATM    7  C   UNL     1      -0.905  -1.433  -0.003  1.00  0.00     0.099 A 
HETATM    8  C   UNL     1      -0.917   1.374   0.005  1.00  0.00     0.049 A 
HETATM    9  C   UNL     1      -2.077  -0.777  -0.008  1.00  0.00     0.018 A 
HETATM   10  C   UNL     1      -2.071   0.678  -0.006  1.00  0.00     0.005 A 
HETATM   11  C   UNL     1       3.840   0.154   0.014  1.00  0.00     0.070 C 
ENDROOT
BRANCH   5  12
HETATM   12  C   UNL     1       2.014  -2.559  -0.009  1.00  0.00     0.223 C 
BRANCH  12  13
HETATM   13  O   UNL     1       1.481  -3.187   1.146  1.00  0.00    -0.395 OA
HETATM   14  H   UNL     1       1.817  -2.743   1.940  1.00  0.00     0.209 HD
ENDBRANCH  12  13
ENDBRANCH   5  12
TORSDOF 2
