REMARK  3 active torsions:
REMARK  status: ('A' for Active; 'I' for Inactive)
REMARK    1  A    between atoms: N_1  and  C_2 
REMARK    2  A    between atoms: C_8  and  C_12 
REMARK    3  A    between atoms: N_9  and  C_12 
ROOT
HETATM    1  C   UNL     1      -0.693  -2.467   0.017  1.00  0.00     0.038 A 
HETATM    2  C   UNL     1      -1.496  -2.984  -1.013  1.00  0.00     0.038 A 
HETATM    3  C   UNL     1      -1.804  -4.356  -1.079  1.00  0.00    -0.031 A 
HETATM    4  C   UNL     1      -0.214  -3.344   1.001  1.00  0.00     0.030 A 
HETATM    5  C   UNL     1      -0.530  -4.705   0.952  1.00  0.00     0.003 A 
HETATM    6  C   UNL     1      -1.316  -5.209  -0.083  1.00  0.00     0.009 A 
ENDROOT
BRANCH   1   7
HETATM    7  N   UNL     1      -0.354  -1.077   0.048  1.00  0.00    -0.333 N 
HETATM    8  C   UNL     1       0.482  -0.448   0.955  1.00  0.00     0.096 A 
HETATM    9  C   UNL     1       0.583   0.889   0.639  1.00  0.00     0.019 A 
HETATM   10  C   UNL     1      -0.222   1.111  -0.493  1.00  0.00     0.019 A 
HETATM   11  C   UNL     1      -0.785  -0.100  -0.834  1.00  0.00     0.096 A 
ENDBRANCH   1   7
BRANCH   3  12
HETATM   12  C   UNL     1      -2.604  -4.900  -2.235  1.00  0.00     0.268 C 
BRANCH  12  13
HETATM   13  N   UNL     1      -3.926  -4.291  -2.317  1.00  0.00    -0.075 N 
HETATM   14  H   UNL     1      -4.434  -4.685  -3.109  1.00  0.00     0.274 HD
HETATM   15  H   UNL     1      -3.829  -3.283  -2.442  1.00  0.00     0.274 HD
HETATM   16  H   UNL     1      -4.441  -4.478  -1.456  1.00  0.00     0.274 HD
ENDBRANCH  12  13
ENDBRANCH   3  12
TORSDOF 3
