REMARK  2 active torsions:
REMARK  status: ('A' for Active; 'I' for Inactive)
REMARK    1  A    between atoms: N_1  and  C_2 
REMARK    2  A    between atoms: C_8  and  N_9 
ROOT
HETATM    1  C   UNL     1      -0.727  -2.487   0.008  1.00  0.00     0.040 A 
HETATM    2  C   UNL     1      -1.604  -2.975  -0.976  1.00  0.00     0.058 A 
HETATM    3  C   UNL     1      -1.963  -4.328  -1.019  1.00  0.00     0.027 A 
HETATM    4  C   UNL     1      -0.258  -3.370   0.990  1.00  0.00     0.030 A 
HETATM    5  C   UNL     1      -0.677  -4.702   0.997  1.00  0.00     0.004 A 
HETATM    6  C   UNL     1      -1.540  -5.171   0.008  1.00  0.00     0.029 A 
ENDROOT
BRANCH   1   7
HETATM    7  N   UNL     1      -0.324  -1.114   0.010  1.00  0.00    -0.333 N 
HETATM    8  C   UNL     1      -0.746  -0.124  -0.861  1.00  0.00     0.096 A 
HETATM    9  C   UNL     1      -0.123   1.063  -0.545  1.00  0.00     0.019 A 
HETATM   10  C   UNL     1       0.716   0.813   0.556  1.00  0.00     0.019 A 
HETATM   11  C   UNL     1       0.576  -0.518   0.879  1.00  0.00     0.096 A 
ENDBRANCH   1   7
BRANCH   3  12
HETATM   12  N   UNL     1      -2.912  -4.775  -1.949  1.00  0.00    -0.399 N 
HETATM   13  H   UNL     1      -3.209  -4.179  -2.674  1.00  0.00     0.156 HD
HETATM   14  H   UNL     1      -3.281  -5.684  -1.877  1.00  0.00     0.156 HD
ENDBRANCH   3  12
TORSDOF 2
