REMARK  2 active torsions:
REMARK  status: ('A' for Active; 'I' for Inactive)
REMARK    1  A    between atoms: C_8  and  C_11 
REMARK    2  A    between atoms: N_10  and  C_11 
ROOT
HETATM    1  C   UNL     1      -0.209  -0.895   0.008  1.00  0.00    -0.018 A 
HETATM    2  S   UNL     1       1.739   0.801   0.019  1.00  0.00    -0.101 SA
HETATM    3  C   UNL     1       0.046   0.478   0.014  1.00  0.00     0.015 A 
HETATM    4  C   UNL     1       2.132  -0.858   0.008  1.00  0.00     0.051 A 
HETATM    5  C   UNL     1       1.010  -1.653   0.007  1.00  0.00     0.020 A 
HETATM    6  C   UNL     1      -1.557  -1.324  -0.004  1.00  0.00     0.021 A 
HETATM    7  C   UNL     1      -1.001   1.420   0.014  1.00  0.00     0.020 A 
HETATM    8  C   UNL     1      -2.616  -0.398  -0.019  1.00  0.00    -0.032 A 
HETATM    9  C   UNL     1      -2.323   0.966  -0.004  1.00  0.00     0.010 A 
ENDROOT
BRANCH   8  10
HETATM   10  C   UNL     1      -4.042  -0.887  -0.051  1.00  0.00     0.268 C 
BRANCH  10  11
HETATM   11  N   UNL     1      -4.298  -1.695  -1.238  1.00  0.00    -0.075 N 
HETATM   12  H   UNL     1      -5.268  -2.011  -1.232  1.00  0.00     0.274 HD
HETATM   13  H   UNL     1      -3.677  -2.504  -1.240  1.00  0.00     0.274 HD
HETATM   14  H   UNL     1      -4.129  -1.134  -2.074  1.00  0.00     0.274 HD
ENDBRANCH  10  11
ENDBRANCH   8  10
TORSDOF 2
