REMARK  1 active torsions:
REMARK  status: ('A' for Active; 'I' for Inactive)
REMARK    1  A    between atoms: N_1  and  C_4 
ROOT
HETATM    1  C   UNL     1      -0.798  -2.431  -0.005  1.00  0.00     0.076 A 
HETATM    2  N   UNL     1      -2.530  -1.605  -3.028  1.00  0.00    -0.191 NA
HETATM    3  C   UNL     1      -2.137  -2.198  -2.113  1.00  0.00     0.102 C 
HETATM    4  C   UNL     1      -1.663  -2.949  -0.984  1.00  0.00     0.073 A 
HETATM    5  C   UNL     1      -0.275  -3.293   0.979  1.00  0.00     0.033 A 
HETATM    6  C   UNL     1      -2.018  -4.310  -0.937  1.00  0.00     0.025 A 
HETATM    7  C   UNL     1      -0.652  -4.637   1.022  1.00  0.00     0.002 A 
HETATM    8  C   UNL     1      -1.526  -5.144   0.067  1.00  0.00     0.002 A 
ENDROOT
BRANCH   1   9
HETATM    9  N   UNL     1      -0.407  -1.064   0.041  1.00  0.00    -0.267 N 
HETATM   10  N   UNL     1       0.786  -0.708   0.588  1.00  0.00    -0.305 N 
HETATM   11  C   UNL     1       0.878   0.605   0.371  1.00  0.00     0.109 A 
ATOM     12  HN  UNL     1       1.460  -1.311   1.059  1.00  0.00     0.186 HD
HETATM   13  C   UNL     1      -0.284   1.135  -0.204  1.00  0.00     0.038 A 
HETATM   14  C   UNL     1      -1.107   0.048  -0.375  1.00  0.00     0.118 A 
ENDBRANCH   1   9
TORSDOF 1
