REMARK  1 active torsions:
REMARK  status: ('A' for Active; 'I' for Inactive)
REMARK    1  A    between atoms: C_1  and  C_2 
ROOT
HETATM    1  C   UNL     1      -2.411  -0.724  -0.375  1.00  0.00     0.115 C 
HETATM    2  O   UNL     1      -1.170   1.345  -0.021  1.00  0.00    -0.350 OA
HETATM    3  C   UNL     1      -1.220  -1.585   0.032  1.00  0.00     0.059 C 
HETATM    4  C   UNL     1       0.044  -0.771   0.028  1.00  0.00    -0.024 A 
HETATM    5  C   UNL     1      -2.323   0.594   0.380  1.00  0.00     0.191 C 
HETATM    6  C   UNL     1      -0.003   0.628  -0.007  1.00  0.00     0.075 A 
HETATM    7  C   UNL     1       1.291  -1.410   0.068  1.00  0.00     0.010 A 
HETATM    8  C   UNL     1       1.174   1.373  -0.069  1.00  0.00     0.037 A 
HETATM    9  C   UNL     1       2.469  -0.661   0.028  1.00  0.00     0.001 A 
HETATM   10  C   UNL     1       2.411   0.729  -0.052  1.00  0.00     0.003 A 
ENDROOT
BRANCH   1  11
HETATM   11  C   UNL     1      -3.709  -1.419  -0.081  1.00  0.00     0.179 C 
HETATM   12  O   UNL     1      -4.601  -1.033   0.654  1.00  0.00    -0.648 OA
HETATM   13  O   UNL     1      -3.850  -2.567  -0.774  1.00  0.00    -0.648 OA
ENDBRANCH   1  11
TORSDOF 1
