REMARK  2 active torsions:
REMARK  status: ('A' for Active; 'I' for Inactive)
REMARK    1  A    between atoms: N_1  and  C_3 
REMARK    2  A    between atoms: C_2  and  C_4 
ROOT
HETATM    1  C   UNL     1      -0.707  -2.502   0.008  1.00  0.00     0.038 A 
HETATM    2  C   UNL     1      -1.439  -5.227  -0.049  1.00  0.00     0.041 A 
HETATM    3  C   UNL     1      -1.579  -2.988  -0.979  1.00  0.00     0.031 A 
HETATM    4  C   UNL     1      -0.214  -3.395   0.972  1.00  0.00     0.031 A 
HETATM    5  C   UNL     1      -0.578  -4.747   0.942  1.00  0.00     0.020 A 
HETATM    6  C   UNL     1      -1.940  -4.342  -1.007  1.00  0.00     0.020 A 
ENDROOT
BRANCH   1   7
HETATM    7  N   UNL     1      -0.315  -1.125   0.023  1.00  0.00    -0.333 N 
HETATM    8  C   UNL     1      -0.743  -0.131  -0.841  1.00  0.00     0.096 A 
HETATM    9  C   UNL     1      -0.123   1.057  -0.520  1.00  0.00     0.019 A 
HETATM   10  C   UNL     1       0.714   0.804   0.582  1.00  0.00     0.019 A 
HETATM   11  C   UNL     1       0.575  -0.529   0.900  1.00  0.00     0.096 A 
ENDBRANCH   1   7
BRANCH   2  12
HETATM   12  C   UNL     1      -1.782  -6.669  -0.045  1.00  0.00     0.209 C 
HETATM   13  O   UNL     1      -1.378  -7.496   0.751  1.00  0.00    -0.644 OA
HETATM   14  O   UNL     1      -2.614  -7.011  -1.045  1.00  0.00    -0.644 OA
ENDBRANCH   2  12
TORSDOF 2
