REMARK  2 active torsions:
REMARK  status: ('A' for Active; 'I' for Inactive)
REMARK    1  A    between atoms: C_5  and  C_8 
REMARK    2  A    between atoms: C_8  and  O_9 
ROOT
HETATM    1  C   UNL     1      -0.336  -0.615   0.044  1.00  0.00     0.084 A 
HETATM    2  O   UNL     1       0.946  -1.093   0.076  1.00  0.00    -0.340 OA
HETATM    3  C   UNL     1      -0.415   0.769   0.045  1.00  0.00    -0.021 A 
HETATM    4  C   UNL     1       1.805   0.078  -0.011  1.00  0.00     0.064 C 
HETATM    5  C   UNL     1      -1.462  -1.421   0.021  1.00  0.00    -0.001 A 
HETATM    6  C   UNL     1       0.943   1.355   0.110  1.00  0.00     0.079 C 
HETATM    7  C   UNL     1      -1.641   1.412   0.015  1.00  0.00     0.010 A 
HETATM    8  C   UNL     1      -2.710  -0.774  -0.015  1.00  0.00     0.012 A 
HETATM    9  C   UNL     1       2.527   0.016  -1.361  1.00  0.00     0.046 C 
HETATM   10  C   UNL     1       2.814  -0.031   1.134  1.00  0.00     0.046 C 
HETATM   11  C   UNL     1      -2.796   0.628  -0.020  1.00  0.00     0.001 A 
ENDROOT
BRANCH   5  12
HETATM   12  C   UNL     1      -1.367  -2.917   0.014  1.00  0.00     0.205 C 
BRANCH  12  13
HETATM   13  O   UNL     1      -2.018  -3.456   1.158  1.00  0.00    -0.396 OA
HETATM   14  H   UNL     1      -1.592  -3.119   1.961  1.00  0.00     0.209 HD
ENDBRANCH  12  13
ENDBRANCH   5  12
TORSDOF 2
