REMARK  2 active torsions:
REMARK  status: ('A' for Active; 'I' for Inactive)
REMARK    1  A    between atoms: C_5  and  C_9 
REMARK    2  A    between atoms: O_7  and  C_9 
ROOT
HETATM    1  O   UNL     1      -1.149  -1.374   0.198  1.00  0.00    -0.340 OA
HETATM    2  N   UNL     1      -1.106   1.549   0.163  1.00  0.00    -0.385 N 
HETATM    3  C   UNL     1       0.020  -0.650   0.123  1.00  0.00     0.095 A 
HETATM    4  C   UNL     1       0.054   0.757   0.071  1.00  0.00     0.061 A 
HETATM    5  C   UNL     1      -2.294  -0.590  -0.197  1.00  0.00     0.170 C 
HETATM    6  C   UNL     1      -2.300   0.770   0.510  1.00  0.00     0.154 C 
HETATM    7  C   UNL     1       1.201  -1.393   0.101  1.00  0.00     0.039 A 
HETATM    8  C   UNL     1       1.296   1.392  -0.053  1.00  0.00     0.032 A 
HETATM    9  C   UNL     1       2.431  -0.744  -0.000  1.00  0.00     0.003 A 
HETATM   10  C   UNL     1       2.479   0.647  -0.083  1.00  0.00     0.002 A 
HETATM   11  H   UNL     1      -1.115   2.522   0.010  1.00  0.00     0.159 HD
ENDROOT
BRANCH   5  12
HETATM   12  C   UNL     1      -3.552  -1.398   0.144  1.00  0.00     0.198 C 
BRANCH  12  13
HETATM   13  O   UNL     1      -3.642  -1.696   1.536  1.00  0.00    -0.398 OA
HETATM   14  H   UNL     1      -4.449  -2.206   1.707  1.00  0.00     0.209 HD
ENDBRANCH  12  13
ENDBRANCH   5  12
TORSDOF 2
