REMARK  2 active torsions:
REMARK  status: ('A' for Active; 'I' for Inactive)
REMARK    1  A    between atoms: O_2  and  C_6 
REMARK    2  A    between atoms: C_3  and  C_6 
ROOT
HETATM    1  O   UNL     1      -1.333   0.016  -0.296  1.00  0.00    -0.391 OA
HETATM    2  C   UNL     1       1.517  -0.033   0.257  1.00  0.00     0.013 C 
HETATM    3  C   UNL     1      -0.701   1.190   0.214  1.00  0.00     0.168 C 
HETATM    4  C   UNL     1      -0.736  -1.187   0.185  1.00  0.00     0.168 C 
HETATM    5  C   UNL     1       0.730  -1.261  -0.225  1.00  0.00     0.033 C 
HETATM    6  C   UNL     1       0.770   1.235  -0.186  1.00  0.00     0.033 C 
ENDROOT
BRANCH   2   7
HETATM    7  C   UNL     1       1.735  -0.041   1.778  1.00  0.00     0.168 C 
BRANCH   7   8
HETATM    8  O   UNL     1       2.517   1.074   2.180  1.00  0.00    -0.400 OA
HETATM    9  H   UNL     1       2.644   1.051   3.142  1.00  0.00     0.209 HD
ENDBRANCH   7   8
ENDBRANCH   2   7
TORSDOF 2
