REMARK  2 active torsions:
REMARK  status: ('A' for Active; 'I' for Inactive)
REMARK    1  A    between atoms: C_6  and  C_11 
REMARK    2  A    between atoms: C_11  and  O_12 
ROOT
HETATM    1  N   UNL     1      -0.219   0.685   0.006  1.00  0.00    -0.317 N 
HETATM    2  C   UNL     1      -0.318  -0.701   0.014  1.00  0.00     0.111 A 
HETATM    3  C   UNL     1       0.990   1.376  -0.005  1.00  0.00     0.107 A 
HETATM    4  N   UNL     1      -1.574  -1.094   0.017  1.00  0.00    -0.351 N 
ATOM      5  HN  UNL     1      -1.922  -2.053   0.022  1.00  0.00     0.166 HD
HETATM    6  C   UNL     1       2.150   0.687  -0.002  1.00  0.00    -0.019 A 
HETATM    7  C   UNL     1       0.901  -1.435   0.017  1.00  0.00     0.050 A 
HETATM    8  C   UNL     1       2.077  -0.778   0.010  1.00  0.00     0.014 A 
HETATM    9  C   UNL     1      -2.315   0.061   0.012  1.00  0.00     0.107 A 
HETATM   10  C   UNL     1      -1.502   1.171   0.007  1.00  0.00     0.115 A 
ENDROOT
BRANCH   6  11
HETATM   11  C   UNL     1       3.503   1.335  -0.033  1.00  0.00     0.204 C 
BRANCH  11  12
HETATM   12  O   UNL     1       4.242   0.975   1.125  1.00  0.00    -0.396 OA
HETATM   13  H   UNL     1       3.768   1.272   1.917  1.00  0.00     0.209 HD
ENDBRANCH  11  12
ENDBRANCH   6  11
TORSDOF 2
