REMARK  1 active torsions:
REMARK  status: ('A' for Active; 'I' for Inactive)
REMARK    1  A    between atoms: C_1  and  C_5 
ROOT
HETATM    1  N   UNL     1      -1.878   7.825   0.107  1.00  0.00    -0.191 NA
HETATM    2  C   UNL     1      -1.628   6.692   0.059  1.00  0.00     0.099 C 
HETATM    3  C   UNL     1      -0.576   2.574  -0.028  1.00  0.00    -0.002 A 
HETATM    4  C   UNL     1      -0.184   3.439  -1.061  1.00  0.00     0.016 A 
HETATM    5  C   UNL     1      -1.376   3.089   1.004  1.00  0.00     0.016 A 
HETATM    6  C   UNL     1      -1.307   5.297   0.010  1.00  0.00     0.044 A 
HETATM    7  C   UNL     1      -1.737   4.440   1.026  1.00  0.00     0.023 A 
HETATM    8  C   UNL     1      -0.543   4.791  -1.043  1.00  0.00     0.023 A 
ENDROOT
BRANCH   3   9
HETATM    9  C   UNL     1      -0.131   1.183   0.004  1.00  0.00     0.085 A 
HETATM   10  O   UNL     1       0.724   0.797  -0.991  1.00  0.00    -0.322 OA
HETATM   11  C   UNL     1       1.062  -0.497  -0.759  1.00  0.00     0.142 A 
HETATM   12  C   UNL     1       0.432  -0.961   0.370  1.00  0.00     0.027 A 
HETATM   13  C   UNL     1      -0.341   0.119   0.861  1.00  0.00     0.040 A 
ENDBRANCH   3   9
TORSDOF 1
