REMARK  4 active torsions:
REMARK  status: ('A' for Active; 'I' for Inactive)
REMARK    1  A    between atoms: N_1  and  C_2 
REMARK    2  A    between atoms: C_2  and  C_4 
REMARK    3  A    between atoms: C_6  and  C_14 
REMARK    4  A    between atoms: O_9  and  C_14 
ROOT
HETATM    1  C   UNL     1      -0.363  -0.190  -2.691  1.00  0.00    -0.032 A 
HETATM    2  C   UNL     1       0.163   0.956  -3.309  1.00  0.00     0.018 A 
HETATM    3  C   UNL     1       1.121   0.856  -4.330  1.00  0.00    -0.034 A 
HETATM    4  C   UNL     1       1.113  -1.548  -4.064  1.00  0.00     0.001 A 
HETATM    5  C   UNL     1       0.131  -1.444  -3.076  1.00  0.00     0.009 A 
HETATM    6  C   UNL     1       1.597  -0.403  -4.697  1.00  0.00     0.009 A 
ENDROOT
BRANCH   1   7
HETATM    7  C   UNL     1      -1.526  -0.068  -1.732  1.00  0.00     0.273 C 
BRANCH   7   8
HETATM    8  N   UNL     1      -1.260   0.051  -0.302  1.00  0.00    -0.063 N 
HETATM    9  C   UNL     1      -0.478   1.214   0.128  1.00  0.00     0.261 C 
HETATM   10  C   UNL     1       1.032   0.955   0.248  1.00  0.00     0.195 C 
HETATM   11  O   UNL     1       1.295  -0.180   1.082  1.00  0.00    -0.388 OA
HETATM   12  C   UNL     1       0.678  -1.349   0.530  1.00  0.00     0.195 C 
HETATM   13  C   UNL     1      -0.841  -1.172   0.388  1.00  0.00     0.261 C 
HETATM   14  H   UNL     1      -2.211   0.234   0.020  1.00  0.00     0.280 HD
ENDBRANCH   7   8
ENDBRANCH   1   7
BRANCH   3  15
HETATM   15  C   UNL     1       1.555   2.095  -5.070  1.00  0.00     0.202 C 
BRANCH  15  16
HETATM   16  O   UNL     1       0.441   2.682  -5.736  1.00  0.00    -0.396 OA
HETATM   17  H   UNL     1       0.730   3.478  -6.209  1.00  0.00     0.209 HD
ENDBRANCH  15  16
ENDBRANCH   3  15
TORSDOF 4
