REMARK  2 active torsions:
REMARK  status: ('A' for Active; 'I' for Inactive)
REMARK    1  A    between atoms: C_5  and  C_9 
REMARK    2  A    between atoms: C_9  and  N_11 
ROOT
HETATM    1  N   UNL     1      -1.798  -0.291   0.182  1.00  0.00    -0.352 N 
HETATM    2  C   UNL     1      -0.496  -0.485   0.448  1.00  0.00     0.052 A 
HETATM    3  C   UNL     1       0.144   0.675   0.632  1.00  0.00     0.033 A 
HETATM    4  C   UNL     1      -0.748   1.704   0.481  1.00  0.00     0.048 A 
HETATM    5  C   UNL     1      -1.964   1.065   0.209  1.00  0.00     0.038 A 
HETATM    6  S   UNL     1       1.761   0.431   0.987  1.00  0.00    -0.100 SA
HETATM    7  C   UNL     1       0.285  -1.628   0.573  1.00  0.00     0.038 A 
HETATM    8  C   UNL     1       1.607  -1.273   0.880  1.00  0.00     0.053 A 
HETATM    9  C   UNL     1      -2.796  -1.331  -0.055  1.00  0.00     0.156 C 
ENDROOT
BRANCH   5  10
HETATM   10  C   UNL     1      -3.271   1.783   0.016  1.00  0.00     0.288 C 
BRANCH  10  11
HETATM   11  N   UNL     1      -4.251   1.367   1.029  1.00  0.00    -0.074 N 
HETATM   12  C   UNL     1      -3.814   1.694   2.391  1.00  0.00     0.267 C 
HETATM   13  H   UNL     1      -4.386   0.358   0.960  1.00  0.00     0.277 HD
HETATM   14  H   UNL     1      -5.119   1.871   0.849  1.00  0.00     0.277 HD
ENDBRANCH  10  11
ENDBRANCH   5  10
TORSDOF 2
