REMARK  3 active torsions:
REMARK  status: ('A' for Active; 'I' for Inactive)
REMARK    1  A    between atoms: C_3  and  C_6 
REMARK    2  A    between atoms: C_6  and  C_10 
REMARK    3  A    between atoms: O_7  and  C_10 
ROOT
HETATM    1  O   UNL     1      -1.499   1.049  -0.155  1.00  0.00    -0.321 OA
HETATM    2  C   UNL     1      -2.296  -0.049  -0.141  1.00  0.00     0.150 A 
HETATM    3  C   UNL     1      -1.546  -1.207  -0.067  1.00  0.00    -0.021 A 
HETATM    4  C   UNL     1      -0.182  -0.779  -0.035  1.00  0.00     0.006 A 
HETATM    5  C   UNL     1      -0.213   0.609  -0.086  1.00  0.00     0.085 A 
HETATM    6  C   UNL     1       1.072  -1.417   0.031  1.00  0.00     0.015 A 
HETATM    7  C   UNL     1       0.921   1.419  -0.068  1.00  0.00     0.038 A 
HETATM    8  C   UNL     1       2.230  -0.630   0.048  1.00  0.00     0.001 A 
HETATM    9  C   UNL     1       2.155   0.764   0.001  1.00  0.00     0.003 A 
ENDROOT
BRANCH   3  10
HETATM   10  C   UNL     1      -2.053  -2.612  -0.019  1.00  0.00     0.067 C 
BRANCH  10  11
HETATM   11  C   UNL     1      -2.228  -3.237  -1.402  1.00  0.00     0.168 C 
BRANCH  11  12
HETATM   12  O   UNL     1      -0.981  -3.388  -2.074  1.00  0.00    -0.401 OA
HETATM   13  H   UNL     1      -1.130  -3.786  -2.946  1.00  0.00     0.209 HD
ENDBRANCH  11  12
ENDBRANCH  10  11
ENDBRANCH   3  10
TORSDOF 3
