REMARK  1 active torsions:
REMARK  status: ('A' for Active; 'I' for Inactive)
REMARK    1  A    between atoms: C_8  and  N_10 
ROOT
HETATM    1  N   UNL     1      -1.589  -1.093   0.024  1.00  0.00    -0.360 N 
HETATM    2  C   UNL     1      -0.272  -0.682   0.020  1.00  0.00     0.044 A 
HETATM    3  C   UNL     1      -0.286   0.716   0.003  1.00  0.00    -0.006 A 
HETATM    4  C   UNL     1      -2.425  -0.005   0.017  1.00  0.00     0.091 A 
HETATM    5  C   UNL     1      -1.646   1.127   0.002  1.00  0.00     0.031 A 
HETATM    6  C   UNL     1       0.933  -1.401   0.007  1.00  0.00     0.033 A 
HETATM    7  C   UNL     1       0.940   1.414  -0.028  1.00  0.00     0.042 A 
HETATM    8  C   UNL     1       2.153   0.715   0.004  1.00  0.00     0.026 A 
HETATM    9  C   UNL     1       2.133  -0.679  -0.025  1.00  0.00     0.031 A 
HETATM   10  C   UNL     1      -2.066  -2.457   0.012  1.00  0.00     0.155 C 
ENDROOT
BRANCH   8  11
HETATM   11  N   UNL     1       3.362   1.404  -0.173  1.00  0.00    -0.399 N 
HETATM   12  H   UNL     1       3.376   2.389  -0.153  1.00  0.00     0.156 HD
HETATM   13  H   UNL     1       4.198   0.904  -0.319  1.00  0.00     0.156 HD
ENDBRANCH   8  11
TORSDOF 1
