REMARK  3 active torsions:
REMARK  status: ('A' for Active; 'I' for Inactive)
REMARK    1  A    between atoms: C_3  and  C_4 
REMARK    2  A    between atoms: N_9  and  C_12 
REMARK    3  A    between atoms: C_10  and  C_12 
ROOT
HETATM    1  C   UNL     1      -1.517   2.331  -0.041  1.00  0.00    -0.009 A 
HETATM    2  C   UNL     1      -1.352   3.270  -1.075  1.00  0.00     0.014 A 
HETATM    3  C   UNL     1      -2.508   2.606   0.919  1.00  0.00     0.014 A 
HETATM    4  C   UNL     1      -3.299   3.758   0.846  1.00  0.00     0.010 A 
HETATM    5  C   UNL     1      -2.134   4.431  -1.146  1.00  0.00     0.010 A 
HETATM    6  C   UNL     1      -3.113   4.691  -0.182  1.00  0.00    -0.033 A 
ENDROOT
BRANCH   1   7
HETATM    7  C   UNL     1      -0.666   1.124   0.037  1.00  0.00     0.042 A 
HETATM    8  N   UNL     1       0.581   1.240  -0.492  1.00  0.00    -0.365 N 
HETATM    9  C   UNL     1       1.408   0.175  -0.409  1.00  0.00     0.088 A 
ATOM     10  HN  UNL     1       0.883   2.106  -0.938  1.00  0.00     0.165 HD
HETATM   11  C   UNL     1       1.059  -1.030   0.174  1.00  0.00     0.017 A 
HETATM   12  C   UNL     1      -0.219  -1.153   0.695  1.00  0.00     0.004 A 
HETATM   13  C   UNL     1      -1.093  -0.069   0.624  1.00  0.00     0.030 A 
ENDBRANCH   1   7
BRANCH   6  14
HETATM   14  C   UNL     1      -3.952   5.947  -0.247  1.00  0.00     0.270 C 
BRANCH  14  15
HETATM   15  N   UNL     1      -3.720   6.807   0.913  1.00  0.00    -0.075 N 
HETATM   16  C   UNL     1      -4.544   8.003   0.854  1.00  0.00     0.267 C 
HETATM   17  H   UNL     1      -2.737   7.080   0.933  1.00  0.00     0.277 HD
HETATM   18  H   UNL     1      -3.966   6.286   1.755  1.00  0.00     0.277 HD
ENDBRANCH  14  15
ENDBRANCH   6  14
TORSDOF 3
