REMARK  3 active torsions:
REMARK  status: ('A' for Active; 'I' for Inactive)
REMARK    1  A    between atoms: C_1  and  N_2 
REMARK    2  A    between atoms: C_7  and  C_14 
REMARK    3  A    between atoms: O_11  and  C_14 
ROOT
HETATM    1  C   UNL     1      -0.596   1.266   0.007  1.00  0.00     0.103 A 
HETATM    2  N   UNL     1      -1.316   0.149   0.208  1.00  0.00    -0.352 N 
ATOM      3  HN  UNL     1      -2.324   0.190   0.355  1.00  0.00     0.166 HD
HETATM    4  C   UNL     1       0.792   1.215  -0.161  1.00  0.00     0.057 A 
HETATM    5  C   UNL     1       1.468  -0.003  -0.122  1.00  0.00    -0.030 A 
HETATM    6  C   UNL     1      -0.654  -1.033   0.208  1.00  0.00     0.090 A 
HETATM    7  C   UNL     1       0.716  -1.159   0.053  1.00  0.00     0.026 A 
ENDROOT
BRANCH   1   8
HETATM    8  N   UNL     1      -1.185   2.514   0.052  1.00  0.00    -0.363 N 
HETATM    9  C   UNL     1      -2.445   2.698   0.774  1.00  0.00     0.150 C 
HETATM   10  C   UNL     1      -2.502   4.188   1.180  1.00  0.00     0.187 C 
HETATM   11  O   UNL     1      -2.394   5.063   0.037  1.00  0.00    -0.388 OA
HETATM   12  C   UNL     1      -1.183   4.809  -0.698  1.00  0.00     0.187 C 
HETATM   13  C   UNL     1      -1.109   3.345  -1.156  1.00  0.00     0.150 C 
ENDBRANCH   1   8
BRANCH   5  14
HETATM   14  C   UNL     1       2.966  -0.036  -0.235  1.00  0.00     0.203 C 
BRANCH  14  15
HETATM   15  O   UNL     1       3.532  -0.573   0.952  1.00  0.00    -0.396 OA
HETATM   16  H   UNL     1       4.498  -0.591   0.870  1.00  0.00     0.209 HD
ENDBRANCH  14  15
ENDBRANCH   5  14
TORSDOF 3
