REMARK  3 active torsions:
REMARK  status: ('A' for Active; 'I' for Inactive)
REMARK    1  A    between atoms: C_1  and  C_3 
REMARK    2  A    between atoms: C_8  and  C_12 
REMARK    3  A    between atoms: N_9  and  C_12 
ROOT
HETATM    1  C   UNL     1      -0.207   2.653  -0.002  1.00  0.00    -0.018 A 
HETATM    2  C   UNL     1       0.228   3.431  -1.088  1.00  0.00     0.021 A 
HETATM    3  C   UNL     1      -0.134   4.783  -1.224  1.00  0.00    -0.032 A 
HETATM    4  C   UNL     1      -0.993   3.275   0.979  1.00  0.00     0.013 A 
HETATM    5  C   UNL     1      -1.348   4.622   0.867  1.00  0.00     0.001 A 
HETATM    6  C   UNL     1      -0.926   5.371  -0.231  1.00  0.00     0.009 A 
ENDROOT
BRANCH   1   7
HETATM    7  C   UNL     1       0.159   1.222   0.060  1.00  0.00     0.015 A 
HETATM    8  S   UNL     1      -0.885   0.071   0.800  1.00  0.00    -0.101 SA
HETATM    9  C   UNL     1       0.146  -1.232   0.411  1.00  0.00     0.050 A 
HETATM   10  C   UNL     1       1.267  -0.820  -0.269  1.00  0.00     0.008 A 
HETATM   11  C   UNL     1       1.277   0.592  -0.463  1.00  0.00     0.020 A 
ENDBRANCH   1   7
BRANCH   3  12
HETATM   12  C   UNL     1       0.324   5.582  -2.423  1.00  0.00     0.270 C 
BRANCH  12  13
HETATM   13  N   UNL     1      -0.212   5.027  -3.667  1.00  0.00    -0.075 N 
HETATM   14  C   UNL     1       0.238   5.784  -4.822  1.00  0.00     0.267 C 
HETATM   15  H   UNL     1      -1.231   5.053  -3.629  1.00  0.00     0.277 HD
HETATM   16  H   UNL     1       0.122   4.068  -3.761  1.00  0.00     0.277 HD
ENDBRANCH  12  13
ENDBRANCH   3  12
TORSDOF 3
