REMARK  3 active torsions:
REMARK  status: ('A' for Active; 'I' for Inactive)
REMARK    1  A    between atoms: N_1  and  C_2 
REMARK    2  A    between atoms: C_3  and  C_6 
REMARK    3  A    between atoms: C_6  and  O_7 
ROOT
HETATM    1  C   UNL     1      -2.248   1.046   0.537  1.00  0.00     0.038 A 
HETATM    2  C   UNL     1      -2.849   0.506   1.715  1.00  0.00    -0.008 A 
HETATM    3  C   UNL     1      -2.926   2.157  -0.032  1.00  0.00     0.030 A 
HETATM    4  C   UNL     1      -4.005   1.127   2.265  1.00  0.00     0.011 A 
HETATM    5  C   UNL     1      -4.058   2.757   0.529  1.00  0.00     0.002 A 
HETATM    6  C   UNL     1      -4.596   2.246   1.690  1.00  0.00     0.001 A 
ENDROOT
BRANCH   1   7
HETATM    7  N   UNL     1      -1.104   0.567  -0.083  1.00  0.00    -0.380 N 
HETATM    8  C   UNL     1      -0.027  -0.159   0.594  1.00  0.00     0.123 C 
HETATM    9  C   UNL     1       1.250   0.426  -0.004  1.00  0.00     0.021 C 
HETATM   10  C   UNL     1       0.860   0.680  -1.439  1.00  0.00     0.021 C 
HETATM   11  C   UNL     1      -0.581   1.165  -1.328  1.00  0.00     0.123 C 
ENDBRANCH   1   7
BRANCH   2  12
HETATM   12  C   UNL     1      -2.384  -0.724   2.464  1.00  0.00     0.205 C 
BRANCH  12  13
HETATM   13  O   UNL     1      -2.409  -1.903   1.676  1.00  0.00    -0.396 OA
HETATM   14  H   UNL     1      -3.320  -2.087   1.398  1.00  0.00     0.209 HD
ENDBRANCH  12  13
ENDBRANCH   2  12
TORSDOF 3
