REMARK  1 active torsions:
REMARK  status: ('A' for Active; 'I' for Inactive)
REMARK    1  A    between atoms: C_5  and  C_7 
ROOT
HETATM    1  C   UNL     1      -0.279  -0.975  -0.010  1.00  0.00     0.009 A 
HETATM    2  C   UNL     1       0.887  -1.798  -0.006  1.00  0.00     0.032 A 
HETATM    3  N   UNL     1       1.554   0.315  -0.011  1.00  0.00    -0.360 N 
HETATM    4  C   UNL     1       0.173   0.353  -0.004  1.00  0.00     0.045 A 
HETATM    5  C   UNL     1      -1.677  -1.215  -0.018  1.00  0.00     0.053 A 
HETATM    6  C   UNL     1       1.994  -0.979  -0.005  1.00  0.00     0.091 A 
HETATM    7  C   UNL     1      -0.708   1.446   0.004  1.00  0.00     0.030 A 
HETATM    8  C   UNL     1       2.413   1.478  -0.035  1.00  0.00     0.155 C 
HETATM    9  C   UNL     1      -2.558  -0.117  -0.013  1.00  0.00     0.019 A 
HETATM   10  C   UNL     1      -2.078   1.190  -0.001  1.00  0.00     0.003 A 
ENDROOT
BRANCH   5  11
HETATM   11  C   UNL     1      -2.193  -2.607  -0.033  1.00  0.00     0.210 C 
HETATM   12  O   UNL     1      -1.545  -3.636  -0.039  1.00  0.00    -0.644 OA
HETATM   13  O   UNL     1      -3.541  -2.653  -0.042  1.00  0.00    -0.644 OA
ENDBRANCH   5  11
TORSDOF 1
