REMARK  3 active torsions:
REMARK  status: ('A' for Active; 'I' for Inactive)
REMARK    1  A    between atoms: C_1  and  C_2 
REMARK    2  A    between atoms: C_7  and  C_9 
REMARK    3  A    between atoms: N_8  and  C_9 
ROOT
HETATM    1  C   UNL     1      -0.547   2.469  -0.055  1.00  0.00     0.006 A 
HETATM    2  C   UNL     1      -0.148   3.296  -1.132  1.00  0.00    -0.020 A 
HETATM    3  C   UNL     1      -1.402   3.019   0.923  1.00  0.00     0.015 A 
HETATM    4  C   UNL     1      -0.641   4.619  -1.203  1.00  0.00     0.010 A 
HETATM    5  C   UNL     1      -1.867   4.334   0.843  1.00  0.00     0.001 A 
HETATM    6  C   UNL     1      -1.487   5.134  -0.225  1.00  0.00     0.001 A 
ENDROOT
BRANCH   1   7
HETATM    7  C   UNL     1      -0.132   1.069   0.101  1.00  0.00     0.085 A 
HETATM    8  O   UNL     1      -0.030   0.628   1.396  1.00  0.00    -0.322 OA
HETATM    9  C   UNL     1       0.345  -0.675   1.360  1.00  0.00     0.142 A 
HETATM   10  C   UNL     1       0.489  -1.097   0.063  1.00  0.00     0.027 A 
HETATM   11  C   UNL     1       0.179   0.022  -0.747  1.00  0.00     0.040 A 
ENDBRANCH   1   7
BRANCH   2  12
HETATM   12  C   UNL     1       0.779   2.852  -2.238  1.00  0.00     0.269 C 
BRANCH  12  13
HETATM   13  N   UNL     1       0.032   2.374  -3.396  1.00  0.00    -0.075 N 
HETATM   14  H   UNL     1       0.683   2.083  -4.124  1.00  0.00     0.274 HD
HETATM   15  H   UNL     1      -0.562   3.124  -3.751  1.00  0.00     0.274 HD
HETATM   16  H   UNL     1      -0.549   1.582  -3.122  1.00  0.00     0.274 HD
ENDBRANCH  12  13
ENDBRANCH   2  12
TORSDOF 3
