REMARK  3 active torsions:
REMARK  status: ('A' for Active; 'I' for Inactive)
REMARK    1  A    between atoms: C_4  and  C_8 
REMARK    2  A    between atoms: C_6  and  C_7 
REMARK    3  A    between atoms: C_8  and  N_10 
ROOT
HETATM    1  N   UNL     1       0.057   1.063   0.031  1.00  0.00    -0.298 N 
ATOM      2  HN  UNL     1      -0.316   2.012   0.029  1.00  0.00     0.187 HD
HETATM    3  N   UNL     1      -0.637  -0.090   0.051  1.00  0.00    -0.299 N 
HETATM    4  C   UNL     1       0.160  -1.203   0.056  1.00  0.00     0.056 A 
HETATM    5  C   UNL     1       1.453  -0.720   0.048  1.00  0.00     0.060 A 
HETATM    6  C   UNL     1       1.347   0.693   0.015  1.00  0.00     0.060 A 
HETATM    7  C   UNL     1      -2.078  -0.009  -0.012  1.00  0.00     0.177 C 
ENDROOT
BRANCH   6   8
HETATM    8  C   UNL     1       2.429   1.675  -0.056  1.00  0.00    -0.008 A 
HETATM    9  C   UNL     1       2.205   2.931  -0.636  1.00  0.00     0.014 A 
HETATM   10  C   UNL     1       3.239   3.868  -0.725  1.00  0.00     0.001 A 
HETATM   11  C   UNL     1       4.506   3.555  -0.233  1.00  0.00     0.000 A 
HETATM   12  C   UNL     1       4.739   2.311   0.347  1.00  0.00     0.001 A 
HETATM   13  C   UNL     1       3.708   1.372   0.434  1.00  0.00     0.014 A 
ENDBRANCH   6   8
BRANCH   4  14
HETATM   14  C   UNL     1      -0.330  -2.605   0.020  1.00  0.00     0.290 C 
BRANCH  14  15
HETATM   15  N   UNL     1      -1.153  -2.879  -1.158  1.00  0.00    -0.074 N 
HETATM   16  C   UNL     1      -0.419  -2.705  -2.408  1.00  0.00     0.267 C 
HETATM   17  H   UNL     1      -1.950  -2.241  -1.155  1.00  0.00     0.277 HD
HETATM   18  H   UNL     1      -1.452  -3.853  -1.107  1.00  0.00     0.277 HD
ENDBRANCH  14  15
ENDBRANCH   4  14
TORSDOF 3
