REMARK  2 active torsions:
REMARK  status: ('A' for Active; 'I' for Inactive)
REMARK    1  A    between atoms: C_3  and  C_8 
REMARK    2  A    between atoms: C_8  and  O_9 
ROOT
HETATM    1  C   UNL     1       0.172   0.727   0.028  1.00  0.00     0.117 A 
HETATM    2  C   UNL     1       0.153  -0.684  -0.089  1.00  0.00     0.109 A 
HETATM    3  C   UNL     1      -1.087   1.283   0.038  1.00  0.00     0.042 A 
HETATM    4  S   UNL     1      -2.291   0.059  -0.079  1.00  0.00    -0.099 SA
HETATM    5  C   UNL     1      -1.119  -1.191  -0.171  1.00  0.00     0.090 A 
HETATM    6  O   UNL     1       1.300   1.473   0.112  1.00  0.00    -0.345 OA
HETATM    7  O   UNL     1       1.255  -1.467  -0.140  1.00  0.00    -0.346 OA
HETATM    8  C   UNL     1       2.445   0.697  -0.284  1.00  0.00     0.202 C 
HETATM    9  C   UNL     1       2.415  -0.729   0.282  1.00  0.00     0.202 C 
ENDROOT
BRANCH   3  10
HETATM   10  C   UNL     1      -1.472   2.720   0.126  1.00  0.00     0.213 C 
BRANCH  10  11
HETATM   11  O   UNL     1      -0.928   3.387  -1.008  1.00  0.00    -0.396 OA
HETATM   12  H   UNL     1       0.037   3.287  -1.010  1.00  0.00     0.209 HD
ENDBRANCH  10  11
ENDBRANCH   3  10
TORSDOF 2
