REMARK  2 active torsions:
REMARK  status: ('A' for Active; 'I' for Inactive)
REMARK    1  A    between atoms: C_1  and  C_4 
REMARK    2  A    between atoms: C_2  and  C_3 
ROOT
HETATM    1  C   UNL     1       3.881   3.299   1.064  1.00  0.00     0.041 A 
HETATM    2  C   UNL     1       2.568   1.536   0.015  1.00  0.00    -0.024 A 
HETATM    3  C   UNL     1       2.761   2.456   1.057  1.00  0.00     0.030 A 
HETATM    4  C   UNL     1       4.823   3.217   0.033  1.00  0.00     0.018 A 
HETATM    5  C   UNL     1       3.516   1.479  -1.018  1.00  0.00     0.012 A 
HETATM    6  C   UNL     1       4.640   2.308  -1.006  1.00  0.00     0.002 A 
ENDROOT
BRANCH   2   7
HETATM    7  C   UNL     1       1.387   0.669   0.009  1.00  0.00    -0.019 A 
HETATM    8  C   UNL     1       1.404  -0.597  -0.551  1.00  0.00     0.061 A 
HETATM    9  S   UNL     1      -0.102  -1.401  -0.431  1.00  0.00    -0.113 SA
HETATM   10  C   UNL     1      -0.801  -0.078   0.389  1.00  0.00     0.050 A 
HETATM   11  C   UNL     1       0.094   0.955   0.562  1.00  0.00     0.020 A 
ENDBRANCH   2   7
BRANCH   1  12
HETATM   12  C   UNL     1       4.104   4.297   2.138  1.00  0.00     0.209 C 
HETATM   13  O   UNL     1       5.059   5.047   2.228  1.00  0.00    -0.644 OA
HETATM   14  O   UNL     1       3.111   4.321   3.044  1.00  0.00    -0.644 OA
ENDBRANCH   1  12
TORSDOF 2
