REMARK  3 active torsions:
REMARK  status: ('A' for Active; 'I' for Inactive)
REMARK    1  A    between atoms: N_1  and  C_7 
REMARK    2  A    between atoms: C_4  and  C_8 
REMARK    3  A    between atoms: C_8  and  O_11 
ROOT
HETATM    1  N   UNL     1      -0.276  -1.129   0.052  1.00  0.00    -0.260 N 
HETATM    2  N   UNL     1       1.000  -0.692   0.223  1.00  0.00    -0.298 N 
ATOM      3  HN  UNL     1       1.825  -1.259   0.419  1.00  0.00     0.187 HD
HETATM    4  C   UNL     1      -0.385   1.093  -0.033  1.00  0.00     0.013 A 
HETATM    5  C   UNL     1      -1.158  -0.061  -0.049  1.00  0.00     0.041 A 
HETATM    6  C   UNL     1       0.947   0.631   0.081  1.00  0.00     0.033 A 
HETATM    7  C   UNL     1      -2.645  -0.150  -0.042  1.00  0.00     0.071 C 
HETATM    8  C   UNL     1       2.200   1.426   0.099  1.00  0.00     0.070 C 
ENDROOT
BRANCH   1   9
HETATM    9  C   UNL     1      -0.517  -2.530   0.015  1.00  0.00     0.056 A 
HETATM   10  C   UNL     1       0.322  -3.379   0.754  1.00  0.00     0.031 A 
HETATM   11  C   UNL     1       0.098  -4.757   0.761  1.00  0.00     0.002 A 
HETATM   12  C   UNL     1      -0.939  -5.299   0.004  1.00  0.00     0.000 A 
HETATM   13  C   UNL     1      -1.748  -4.463  -0.767  1.00  0.00     0.002 A 
HETATM   14  C   UNL     1      -1.542  -3.080  -0.762  1.00  0.00     0.031 A 
ENDBRANCH   1   9
BRANCH   4  15
HETATM   15  C   UNL     1      -0.850   2.506  -0.071  1.00  0.00     0.207 C 
BRANCH  15  16
HETATM   16  O   UNL     1      -1.597   2.788  -1.249  1.00  0.00    -0.396 OA
HETATM   17  H   UNL     1      -1.037   2.648  -2.028  1.00  0.00     0.209 HD
ENDBRANCH  15  16
ENDBRANCH   4  15
TORSDOF 3
