REMARK  4 active torsions:
REMARK  status: ('A' for Active; 'I' for Inactive)
REMARK    1  A    between atoms: C_1  and  O_4 
REMARK    2  A    between atoms: O_4  and  C_5 
REMARK    3  A    between atoms: C_7  and  C_13 
REMARK    4  A    between atoms: O_8  and  C_13 
ROOT
HETATM    1  C   UNL     1      -0.864   3.543  -0.086  1.00  0.00     0.078 A 
HETATM    2  C   UNL     1      -0.106   3.950  -1.189  1.00  0.00     0.046 A 
HETATM    3  C   UNL     1       0.473   5.224  -1.230  1.00  0.00    -0.032 A 
HETATM    4  C   UNL     1      -0.594   5.738   0.890  1.00  0.00     0.003 A 
HETATM    5  C   UNL     1      -1.131   4.450   0.940  1.00  0.00     0.037 A 
HETATM    6  C   UNL     1       0.214   6.119  -0.185  1.00  0.00     0.009 A 
ENDROOT
BRANCH   1   7
HETATM    7  O   UNL     1      -1.423   2.288   0.030  1.00  0.00    -0.294 OA
BRANCH   7   8
HETATM    8  C   UNL     1      -0.703   1.208  -0.474  1.00  0.00     0.147 A 
HETATM    9  N   UNL     1       0.650   1.255  -0.496  1.00  0.00    -0.347 N 
HETATM   10  C   UNL     1       1.289   0.209  -1.059  1.00  0.00     0.090 A 
ATOM     11  HN  UNL     1       1.163   2.045  -0.105  1.00  0.00     0.167 HD
HETATM   12  C   UNL     1       0.639  -0.899  -1.573  1.00  0.00     0.017 A 
HETATM   13  C   UNL     1      -0.750  -0.946  -1.495  1.00  0.00     0.006 A 
HETATM   14  C   UNL     1      -1.439   0.128  -0.930  1.00  0.00     0.056 A 
ENDBRANCH   7   8
ENDBRANCH   1   7
BRANCH   3  15
HETATM   15  C   UNL     1       1.384   5.604  -2.365  1.00  0.00     0.203 C 
BRANCH  15  16
HETATM   16  O   UNL     1       0.839   6.683  -3.110  1.00  0.00    -0.396 OA
HETATM   17  H   UNL     1       1.442   6.912  -3.835  1.00  0.00     0.209 HD
ENDBRANCH  15  16
ENDBRANCH   3  15
TORSDOF 4
