REMARK  3 active torsions:
REMARK  status: ('A' for Active; 'I' for Inactive)
REMARK    1  A    between atoms: C_8  and  C_11 
REMARK    2  A    between atoms: O_10  and  C_12 
REMARK    3  A    between atoms: C_11  and  C_12 
ROOT
HETATM    1  C   UNL     1      -0.186   0.682   0.064  1.00  0.00     0.105 A 
HETATM    2  C   UNL     1      -0.233  -0.687  -0.047  1.00  0.00     0.105 A 
HETATM    3  O   UNL     1      -1.427   1.235   0.147  1.00  0.00    -0.323 OA
HETATM    4  O   UNL     1      -1.505  -1.169  -0.044  1.00  0.00    -0.323 OA
HETATM    5  C   UNL     1      -2.256   0.055   0.092  1.00  0.00     0.352 A 
HETATM    6  C   UNL     1       1.008   1.371   0.087  1.00  0.00     0.047 A 
HETATM    7  C   UNL     1       0.912  -1.447  -0.142  1.00  0.00     0.040 A 
HETATM    8  C   UNL     1       2.198   0.632  -0.007  1.00  0.00    -0.053 A 
HETATM    9  C   UNL     1       2.138  -0.776  -0.121  1.00  0.00     0.010 A 
ENDROOT
BRANCH   8  10
HETATM   10  C   UNL     1       3.541   1.324   0.043  1.00  0.00     0.064 C 
BRANCH  10  11
HETATM   11  C   UNL     1       4.048   1.534   1.471  1.00  0.00     0.168 C 
BRANCH  11  12
HETATM   12  O   UNL     1       4.294   0.294   2.127  1.00  0.00    -0.401 OA
HETATM   13  H   UNL     1       4.613   0.463   3.027  1.00  0.00     0.209 HD
ENDBRANCH  11  12
ENDBRANCH  10  11
ENDBRANCH   8  10
TORSDOF 3
