REMARK  3 active torsions:
REMARK  status: ('A' for Active; 'I' for Inactive)
REMARK    1  A    between atoms: C_1  and  N_3 
REMARK    2  A    between atoms: C_5  and  C_10 
REMARK    3  A    between atoms: C_10  and  O_11 
ROOT
HETATM    1  C   UNL     1       0.183   1.279  -0.050  1.00  0.00     0.072 A 
HETATM    2  S   UNL     1      -0.888   0.103   0.623  1.00  0.00    -0.075 SA
HETATM    3  C   UNL     1       1.309   0.637  -0.542  1.00  0.00     0.038 A 
HETATM    4  C   UNL     1       0.128  -1.209   0.215  1.00  0.00     0.008 A 
HETATM    5  C   UNL     1       1.277  -0.778  -0.404  1.00  0.00     0.019 A 
ENDROOT
BRANCH   1   6
HETATM    6  N   UNL     1      -0.046   2.634  -0.049  1.00  0.00    -0.371 N 
HETATM    7  C   UNL     1      -1.251   3.216   0.574  1.00  0.00     0.149 C 
HETATM    8  C   UNL     1      -0.988   4.689   0.937  1.00  0.00     0.187 C 
HETATM    9  O   UNL     1      -0.561   5.455  -0.201  1.00  0.00    -0.388 OA
HETATM   10  C   UNL     1       0.642   4.892  -0.748  1.00  0.00     0.187 C 
HETATM   11  C   UNL     1       0.423   3.441  -1.196  1.00  0.00     0.149 C 
ENDBRANCH   1   6
BRANCH   4  12
HETATM   12  C   UNL     1      -0.274  -2.609   0.531  1.00  0.00     0.210 C 
BRANCH  12  13
HETATM   13  O   UNL     1      -0.965  -3.117  -0.602  1.00  0.00    -0.396 OA
HETATM   14  H   UNL     1      -1.738  -2.561  -0.786  1.00  0.00     0.209 HD
ENDBRANCH  12  13
ENDBRANCH   4  12
TORSDOF 3
