REMARK  2 active torsions:
REMARK  status: ('A' for Active; 'I' for Inactive)
REMARK    1  A    between atoms: C_1  and  C_5 
REMARK    2  A    between atoms: C_11  and  N_12 
ROOT
HETATM    1  N   UNL     1      -0.847   3.195   0.957  1.00  0.00    -0.363 N 
ATOM      2  HN  UNL     1      -1.168   2.586   1.710  1.00  0.00     0.165 HD
HETATM    3  C   UNL     1      -0.102   2.718  -0.069  1.00  0.00     0.049 A 
HETATM    4  C   UNL     1       0.302   3.526  -1.128  1.00  0.00     0.033 A 
HETATM    5  C   UNL     1      -1.147   4.518   0.939  1.00  0.00     0.117 A 
HETATM    6  C   UNL     1      -0.715   5.422  -0.029  1.00  0.00     0.041 A 
HETATM    7  C   UNL     1      -0.027   4.883  -1.111  1.00  0.00     0.033 A 
ENDROOT
BRANCH   3   8
HETATM    8  C   UNL     1       0.219   1.286   0.026  1.00  0.00     0.031 A 
HETATM    9  S   UNL     1       1.650   0.645  -0.683  1.00  0.00    -0.100 SA
HETATM   10  C   UNL     1       1.310  -0.935  -0.135  1.00  0.00     0.050 A 
HETATM   11  C   UNL     1       0.136  -0.991   0.581  1.00  0.00     0.008 A 
HETATM   12  C   UNL     1      -0.486   0.288   0.680  1.00  0.00     0.021 A 
ENDBRANCH   3   8
BRANCH   6  13
HETATM   13  N   UNL     1      -1.146   6.753  -0.054  1.00  0.00    -0.398 N 
HETATM   14  H   UNL     1      -0.819   7.363  -0.754  1.00  0.00     0.156 HD
HETATM   15  H   UNL     1      -1.777   7.079   0.628  1.00  0.00     0.156 HD
ENDBRANCH   6  13
TORSDOF 2
