REMARK  3 active torsions:
REMARK  status: ('A' for Active; 'I' for Inactive)
REMARK    1  A    between atoms: C_5  and  C_7 
REMARK    2  A    between atoms: C_7  and  C_10 
REMARK    3  A    between atoms: N_8  and  C_10 
ROOT
HETATM    1  N   UNL     1      -0.233  -1.359  -0.105  1.00  0.00    -0.357 N 
ATOM      2  HN  UNL     1      -0.686  -2.257  -0.274  1.00  0.00     0.166 HD
HETATM    3  C   UNL     1      -0.864  -0.210   0.017  1.00  0.00     0.046 A 
HETATM    4  S   UNL     1       0.143   1.160   0.264  1.00  0.00    -0.087 SA
HETATM    5  C   UNL     1       1.134  -1.174   0.029  1.00  0.00     0.018 A 
HETATM    6  C   UNL     1       1.517   0.138   0.237  1.00  0.00     0.076 A 
HETATM    7  C   UNL     1      -2.341  -0.049  -0.042  1.00  0.00     0.076 C 
ENDROOT
BRANCH   5   8
HETATM    8  C   UNL     1       2.036  -2.367  -0.038  1.00  0.00     0.084 C 
BRANCH   8   9
HETATM    9  C   UNL     1       2.501  -2.666  -1.467  1.00  0.00     0.235 C 
BRANCH   9  10
HETATM   10  N   UNL     1       3.413  -3.812  -1.511  1.00  0.00    -0.079 N 
HETATM   11  H   UNL     1       3.701  -3.980  -2.475  1.00  0.00     0.274 HD
HETATM   12  H   UNL     1       2.939  -4.639  -1.148  1.00  0.00     0.274 HD
HETATM   13  H   UNL     1       4.236  -3.614  -0.941  1.00  0.00     0.274 HD
ENDBRANCH   9  10
ENDBRANCH   8   9
ENDBRANCH   5   8
TORSDOF 3
