REMARK  4 active torsions:
REMARK  status: ('A' for Active; 'I' for Inactive)
REMARK    1  A    between atoms: N_1  and  C_2 
REMARK    2  A    between atoms: C_2  and  C_3 
REMARK    3  A    between atoms: C_5  and  C_11 
REMARK    4  A    between atoms: N_6  and  C_11 
ROOT
HETATM    1  C   UNL     1      -0.548   0.055   2.599  1.00  0.00    -0.032 A 
HETATM    2  C   UNL     1       0.744   0.583   2.754  1.00  0.00     0.017 A 
HETATM    3  C   UNL     1       1.659   0.028   3.663  1.00  0.00    -0.033 A 
HETATM    4  C   UNL     1      -0.025  -1.594   4.305  1.00  0.00     0.001 A 
HETATM    5  C   UNL     1      -0.920  -1.042   3.387  1.00  0.00     0.009 A 
HETATM    6  C   UNL     1       1.257  -1.063   4.443  1.00  0.00     0.009 A 
ENDROOT
BRANCH   1   7
HETATM    7  C   UNL     1      -1.488   0.630   1.561  1.00  0.00     0.273 C 
BRANCH   7   8
HETATM    8  N   UNL     1      -2.414   1.694   1.966  1.00  0.00    -0.067 N 
HETATM    9  C   UNL     1      -1.790   2.913   2.473  1.00  0.00     0.235 C 
HETATM   10  C   UNL     1      -1.822   2.794   3.985  1.00  0.00     0.029 C 
HETATM   11  C   UNL     1      -3.040   1.932   4.273  1.00  0.00     0.029 C 
HETATM   12  C   UNL     1      -3.427   1.301   2.942  1.00  0.00     0.235 C 
HETATM   13  H   UNL     1      -2.857   1.887   1.067  1.00  0.00     0.280 HD
ENDBRANCH   7   8
ENDBRANCH   1   7
BRANCH   3  14
HETATM   14  C   UNL     1       3.050   0.594   3.784  1.00  0.00     0.268 C 
BRANCH  14  15
HETATM   15  N   UNL     1       3.752   0.547   2.506  1.00  0.00    -0.075 N 
HETATM   16  H   UNL     1       4.689   0.936   2.617  1.00  0.00     0.274 HD
HETATM   17  H   UNL     1       3.238   1.093   1.815  1.00  0.00     0.274 HD
HETATM   18  H   UNL     1       3.821  -0.421   2.191  1.00  0.00     0.274 HD
ENDBRANCH  14  15
ENDBRANCH   3  14
TORSDOF 4
