REMARK  3 active torsions:
REMARK  status: ('A' for Active; 'I' for Inactive)
REMARK    1  A    between atoms: N_1  and  C_7 
REMARK    2  A    between atoms: C_7  and  C_8 
REMARK    3  A    between atoms: C_9  and  N_10 
ROOT
HETATM    1  C   UNL     1       2.921  -1.147  -1.239  1.00  0.00    -0.038 A 
HETATM    2  C   UNL     1       4.405  -0.629  -3.588  1.00  0.00     0.025 A 
HETATM    3  C   UNL     1       3.849  -1.889  -3.360  1.00  0.00     0.029 A 
HETATM    4  C   UNL     1       4.165   0.384  -2.657  1.00  0.00     0.029 A 
HETATM    5  C   UNL     1       3.137  -2.156  -2.186  1.00  0.00     0.011 A 
HETATM    6  C   UNL     1       3.451   0.127  -1.483  1.00  0.00     0.011 A 
ENDROOT
BRANCH   1   7
HETATM    7  C   UNL     1       2.117  -1.426   0.006  1.00  0.00     0.186 C 
BRANCH   7   8
HETATM    8  N   UNL     1       2.954  -1.897   1.100  1.00  0.00    -0.299 N 
HETATM    9  N   UNL     1       3.180  -3.218   1.264  1.00  0.00    -0.310 N 
HETATM   10  C   UNL     1       3.947  -3.275   2.353  1.00  0.00     0.108 A 
ATOM     11  HN  UNL     1       2.843  -3.991   0.690  1.00  0.00     0.186 HD
HETATM   12  C   UNL     1       4.183  -2.005   2.912  1.00  0.00     0.037 A 
HETATM   13  C   UNL     1       3.511  -1.133   2.089  1.00  0.00     0.112 A 
ENDBRANCH   7   8
ENDBRANCH   1   7
BRANCH   2  14
HETATM   14  N   UNL     1       4.985  -0.326  -4.826  1.00  0.00    -0.399 N 
HETATM   15  H   UNL     1       5.375   0.564  -4.982  1.00  0.00     0.156 HD
HETATM   16  H   UNL     1       5.002  -1.003  -5.540  1.00  0.00     0.156 HD
ENDBRANCH   2  14
TORSDOF 3
