REMARK  1 active torsions:
REMARK  status: ('A' for Active; 'I' for Inactive)
REMARK    1  A    between atoms: C_2  and  O_5 
ROOT
HETATM    1  S   UNL     1       0.873   1.504  -0.342  1.00  0.00    -0.169 SA
HETATM    2  C   UNL     1      -0.700  -1.225   0.227  1.00  0.00     0.119 C 
HETATM    3  C   UNL     1       0.752  -1.260  -0.244  1.00  0.00     0.042 C 
HETATM    4  C   UNL     1      -1.452   0.017  -0.248  1.00  0.00     0.042 C 
HETATM    5  C   UNL     1       1.561  -0.069   0.248  1.00  0.00     0.076 C 
HETATM    6  C   UNL     1      -0.829   1.306   0.261  1.00  0.00     0.076 C 
ENDROOT
BRANCH   2   7
HETATM    7  O   UNL     1      -1.373  -2.389  -0.249  1.00  0.00    -0.396 OA
HETATM    8  H   UNL     1      -1.372  -2.389  -1.219  1.00  0.00     0.210 HD
ENDBRANCH   2   7
TORSDOF 1
