REMARK  2 active torsions:
REMARK  status: ('A' for Active; 'I' for Inactive)
REMARK    1  A    between atoms: N_1  and  C_4 
REMARK    2  A    between atoms: C_4  and  C_6 
ROOT
HETATM    1  S   UNL     1       4.542  -0.399   3.007  1.00  0.00    -0.169 SA
HETATM    2  C   UNL     1       3.744   0.003  -0.093  1.00  0.00     0.075 C 
HETATM    3  C   UNL     1       3.871  -1.646   1.874  1.00  0.00     0.075 C 
HETATM    4  C   UNL     1       3.870   1.096   2.228  1.00  0.00     0.075 C 
HETATM    5  C   UNL     1       4.251  -1.352   0.424  1.00  0.00     0.028 C 
HETATM    6  C   UNL     1       4.256   1.178   0.752  1.00  0.00     0.028 C 
ENDROOT
BRANCH   2   7
HETATM    7  C   UNL     1       2.224   0.003  -0.093  1.00  0.00    -0.073 C 
BRANCH   7   8
HETATM    8  N   UNL     1       0.964   0.003  -0.093  1.00  0.00    -0.369 N 
ATOM      9  HN2 UNL     1       1.984   0.003  -0.093  1.00  0.00     0.165 HD
ATOM     10  HN1 UNL     1      -0.056   0.003  -0.093  1.00  0.00     0.165 HD
ENDBRANCH   7   8
ENDBRANCH   2   7
TORSDOF 2
