REMARK  3 active torsions:
REMARK  status: ('A' for Active; 'I' for Inactive)
REMARK    1  A    between atoms: O_2  and  C_6 
REMARK    2  A    between atoms: C_3  and  C_7 
REMARK    3  A    between atoms: C_6  and  C_7 
ROOT
HETATM    1  O   UNL     1      -1.371   0.025  -0.292  1.00  0.00    -0.391 OA
HETATM    2  C   UNL     1       1.490  -0.019   0.229  1.00  0.00    -0.009 C 
HETATM    3  C   UNL     1      -0.756  -1.178   0.165  1.00  0.00     0.168 C 
HETATM    4  C   UNL     1      -0.741   1.197   0.224  1.00  0.00     0.168 C 
HETATM    5  C   UNL     1       0.700  -1.233  -0.282  1.00  0.00     0.031 C 
HETATM    6  C   UNL     1       0.730   1.255  -0.183  1.00  0.00     0.031 C 
ENDROOT
BRANCH   2   7
HETATM    7  C   UNL     1       1.743  -0.035   1.751  1.00  0.00     0.031 C 
BRANCH   7   8
HETATM    8  C   UNL     1       2.496  -1.267   2.244  1.00  0.00     0.164 C 
BRANCH   8   9
HETATM    9  O   UNL     1       2.686  -1.179   3.651  1.00  0.00    -0.401 OA
HETATM   10  H   UNL     1       3.165  -1.963   3.962  1.00  0.00     0.209 HD
ENDBRANCH   8   9
ENDBRANCH   7   8
ENDBRANCH   2   7
TORSDOF 3
