REMARK  1 active torsions:
REMARK  status: ('A' for Active; 'I' for Inactive)
REMARK    1  A    between atoms: N_1  and  C_2 
ROOT
HETATM    1  C   UNL     1      -0.737  -2.473   0.022  1.00  0.00     0.038 A 
HETATM    2  C   UNL     1      -0.265  -3.355   1.009  1.00  0.00     0.033 A 
HETATM    3  C   UNL     1      -1.622  -2.960  -0.955  1.00  0.00     0.033 A 
HETATM    4  C   UNL     1      -1.541  -5.153   0.038  1.00  0.00     0.116 A 
HETATM    5  C   UNL     1      -2.020  -4.300  -0.946  1.00  0.00     0.044 A 
HETATM    6  C   UNL     1      -0.670  -4.694   1.015  1.00  0.00     0.044 A 
HETATM    7  F   UNL     1      -1.925  -6.437   0.045  1.00  0.00    -0.206 F 
ENDROOT
BRANCH   1   8
HETATM    8  N   UNL     1      -0.323  -1.103   0.012  1.00  0.00    -0.333 N 
HETATM    9  C   UNL     1       0.574  -0.504   0.880  1.00  0.00     0.096 A 
HETATM   10  C   UNL     1       0.715   0.826   0.551  1.00  0.00     0.019 A 
HETATM   11  C   UNL     1      -0.122   1.072  -0.553  1.00  0.00     0.019 A 
HETATM   12  C   UNL     1      -0.742  -0.119  -0.866  1.00  0.00     0.096 A 
ENDBRANCH   1   8
TORSDOF 1
