REMARK  2 active torsions:
REMARK  status: ('A' for Active; 'I' for Inactive)
REMARK    1  A    between atoms: N_1  and  C_8 
REMARK    2  A    between atoms: C_8  and  C_9 
ROOT
HETATM    1  N   UNL     1      -1.026  -3.135  -2.344  1.00  0.00    -0.368 N 
ATOM      2  HN  UNL     1      -1.964  -2.739  -2.279  1.00  0.00     0.165 HD
HETATM    3  C   UNL     1      -0.184  -3.131  -1.278  1.00  0.00     0.027 A 
HETATM    4  C   UNL     1      -0.574  -3.683  -3.494  1.00  0.00     0.088 A 
HETATM    5  C   UNL     1       1.092  -3.692  -1.338  1.00  0.00     0.027 A 
HETATM    6  C   UNL     1       0.679  -4.252  -3.636  1.00  0.00     0.017 A 
HETATM    7  C   UNL     1       1.523  -4.261  -2.533  1.00  0.00     0.003 A 
ENDROOT
BRANCH   3   8
HETATM    8  C   UNL     1      -0.670  -2.467  -0.015  1.00  0.00     0.184 C 
BRANCH   8   9
HETATM    9  N   UNL     1      -0.285  -1.061   0.018  1.00  0.00    -0.361 N 
HETATM   10  C   UNL     1      -1.037  -0.025  -0.472  1.00  0.00     0.091 A 
HETATM   11  C   UNL     1      -0.343   1.146  -0.259  1.00  0.00     0.019 A 
HETATM   12  C   UNL     1       0.860   0.806   0.404  1.00  0.00     0.019 A 
HETATM   13  C   UNL     1       0.864  -0.560   0.581  1.00  0.00     0.091 A 
ENDBRANCH   8   9
ENDBRANCH   3   8
TORSDOF 2
