REMARK  1 active torsions:
REMARK  status: ('A' for Active; 'I' for Inactive)
REMARK    1  A    between atoms: N_3  and  O_4 
ROOT
HETATM    1  C   UNL     1      -1.594   0.701   0.139  1.00  0.00     0.097 C 
HETATM    2  N   UNL     1      -1.660  -0.649  -0.157  1.00  0.00    -0.378 N 
HETATM    3  N   UNL     1      -2.569   1.264   0.798  1.00  0.00    -0.257 N 
HETATM    4  C   UNL     1      -0.358   1.439  -0.364  1.00  0.00     0.078 C 
HETATM    5  C   UNL     1      -2.112  -0.983  -1.504  1.00  0.00     0.121 C 
HETATM    6  C   UNL     1      -0.941  -1.096  -2.479  1.00  0.00     0.020 C 
HETATM    7  C   UNL     1      -0.233   1.336  -1.888  1.00  0.00     0.007 C 
HETATM    8  C   UNL     1       0.184  -0.060  -2.357  1.00  0.00     0.002 C 
HETATM    9  H   UNL     1      -1.417  -1.341   0.499  1.00  0.00     0.160 HD
HETATM   10  H   UNL     1      -3.375   0.784   1.096  1.00  0.00     0.195 HD
ENDROOT
BRANCH   3  11
HETATM   11  O   UNL     1      -2.344   2.622   1.034  1.00  0.00    -0.288 OA
HETATM   12  H   UNL     1      -1.557   3.027   0.726  1.00  0.00     0.244 HD
ENDBRANCH   3  11
TORSDOF 1
