REMARK  3 active torsions:
REMARK  status: ('A' for Active; 'I' for Inactive)
REMARK    1  A    between atoms: C_3  and  C_9 
REMARK    2  A    between atoms: C_9  and  O_11 
REMARK    3  A    between atoms: O_11  and  C_12 
ROOT
HETATM    1  N   UNL     1      -0.370  -3.142  -7.243  1.00  0.00    -0.191 NA
HETATM    2  C   UNL     1       0.188  -3.009  -6.232  1.00  0.00     0.099 C 
HETATM    3  C   UNL     1       0.865  -2.845  -4.981  1.00  0.00     0.044 A 
HETATM    4  C   UNL     1       2.130  -2.471  -2.508  1.00  0.00     0.069 A 
HETATM    5  C   UNL     1       1.961  -1.984  -4.877  1.00  0.00     0.025 A 
HETATM    6  C   UNL     1       0.425  -3.544  -3.853  1.00  0.00     0.025 A 
HETATM    7  C   UNL     1       2.595  -1.805  -3.644  1.00  0.00     0.038 A 
HETATM    8  C   UNL     1       1.064  -3.367  -2.623  1.00  0.00     0.038 A 
ENDROOT
BRANCH   4   9
HETATM    9  O   UNL     1       2.783  -2.175  -1.342  1.00  0.00    -0.345 OA
BRANCH   9  10
HETATM   10  C   UNL     1       2.021  -2.398  -0.147  1.00  0.00     0.233 C 
BRANCH  10  11
HETATM   11  C   UNL     1       2.488  -1.562   1.004  1.00  0.00     0.041 A 
HETATM   12  N   UNL     1       1.729  -1.585   2.168  1.00  0.00    -0.355 N 
HETATM   13  C   UNL     1       2.220  -0.742   3.048  1.00  0.00     0.047 A 
ATOM     14  HN  UNL     1       0.908  -2.172   2.318  1.00  0.00     0.166 HD
HETATM   15  S   UNL     1       3.644   0.085   2.563  1.00  0.00    -0.087 SA
HETATM   16  C   UNL     1       1.603  -0.462   4.372  1.00  0.00     0.076 C 
HETATM   17  C   UNL     1       3.579  -0.714   1.049  1.00  0.00     0.078 A 
ENDBRANCH  10  11
ENDBRANCH   9  10
ENDBRANCH   4   9
TORSDOF 3
