REMARK  2 active torsions:
REMARK  status: ('A' for Active; 'I' for Inactive)
REMARK    1  A    between atoms: C_3  and  O_10 
REMARK    2  A    between atoms: C_8  and  O_11 
ROOT
HETATM    1  C   UNL     1      -0.683  -1.251  -0.041  1.00  0.00     0.080 A 
HETATM    2  C   UNL     1      -0.757   1.160  -0.011  1.00  0.00     0.065 A 
HETATM    3  C   UNL     1      -1.431  -0.063  -0.036  1.00  0.00     0.090 A 
HETATM    4  N   UNL     1      -1.798  -3.596  -0.109  1.00  0.00    -0.191 NA
HETATM    5  C   UNL     1      -1.328  -2.536  -0.075  1.00  0.00     0.102 C 
HETATM    6  C   UNL     1       0.642   1.197  -0.020  1.00  0.00     0.070 A 
HETATM    7  C   UNL     1       0.723  -1.208  -0.027  1.00  0.00     0.064 A 
HETATM    8  C   UNL     1       1.398   0.015  -0.033  1.00  0.00     0.091 A 
HETATM    9 CL   UNL     1       1.404   2.751  -0.028  1.00  0.00    -0.081 Cl
ENDROOT
BRANCH   3  10
HETATM   10  O   UNL     1      -2.794  -0.198  -0.067  1.00  0.00    -0.354 OA
HETATM   11  C   UNL     1      -3.577   0.991  -0.069  1.00  0.00     0.210 C 
ENDBRANCH   3  10
BRANCH   8  12
HETATM   12  O   UNL     1       2.759   0.153  -0.061  1.00  0.00    -0.354 OA
HETATM   13  C   UNL     1       3.551  -1.027  -0.082  1.00  0.00     0.210 C 
ENDBRANCH   8  12
TORSDOF 2
