REMARK  0 active torsions:
REMARK  status: ('A' for Active; 'I' for Inactive)
ROOT
HETATM    1  N   UNL     1       0.963  -0.709   0.003  1.00  0.00    -0.284 N 
ATOM      2  HN  UNL     1       1.801  -1.290   0.007  1.00  0.00     0.188 HD
HETATM    3  C   UNL     1      -1.199  -0.014  -0.003  1.00  0.00     0.068 A 
HETATM    4  C   UNL     1      -0.307  -1.102  -0.005  1.00  0.00     0.114 A 
HETATM    5  N   UNL     1       0.885   0.632   0.004  1.00  0.00    -0.306 N 
HETATM    6  C   UNL     1      -0.396   1.103   0.002  1.00  0.00     0.113 A 
HETATM    7  N   UNL     1      -0.690  -2.379  -0.015  1.00  0.00    -0.384 N 
HETATM    8  C   UNL     1       2.086   1.430   0.005  1.00  0.00     0.177 C 
HETATM    9  H   UNL     1      -1.648  -2.605  -0.020  1.00  0.00     0.157 HD
HETATM   10  H   UNL     1      -0.014  -3.095  -0.016  1.00  0.00     0.157 HD
ENDROOT
TORSDOF 0
