REMARK  1 active torsions:
REMARK  status: ('A' for Active; 'I' for Inactive)
REMARK    1  A    between atoms: C_1  and  C_4 
ROOT
HETATM    1  C   UNL     1      -0.774   1.321  -0.006  1.00  0.00     0.081 A 
HETATM    2  S   UNL     1      -1.421  -0.263  -0.009  1.00  0.00    -0.095 SA
HETATM    3  C   UNL     1       0.609   1.293  -0.001  1.00  0.00     0.033 A 
HETATM    4  C   UNL     1       0.135  -0.972  -0.005  1.00  0.00     0.057 A 
HETATM    5  C   UNL     1       1.149  -0.034  -0.001  1.00  0.00    -0.054 A 
HETATM    6  C   UNL     1       2.607  -0.340   0.003  1.00  0.00     0.048 C 
ENDROOT
BRANCH   1   7
HETATM    7  C   UNL     1      -1.663   2.457  -0.009  1.00  0.00     0.216 C 
HETATM    8  O   UNL     1      -2.885   2.481  -0.014  1.00  0.00    -0.643 OA
HETATM    9  O   UNL     1      -0.975   3.624  -0.006  1.00  0.00    -0.643 OA
ENDBRANCH   1   7
TORSDOF 1
