REMARK  2 active torsions:
REMARK  status: ('A' for Active; 'I' for Inactive)
REMARK    1  A    between atoms: C_1  and  C_5 
REMARK    2  A    between atoms: C_5  and  O_9 
ROOT
HETATM    1  C   UNL     1       1.078  -0.742  -0.003  1.00  0.00     0.102 A 
HETATM    2  C   UNL     1       0.986   0.639   0.001  1.00  0.00     0.063 A 
HETATM    3  S   UNL     1      -0.487  -1.452  -0.003  1.00  0.00    -0.094 SA
HETATM    4  C   UNL     1      -0.370   1.120   0.001  1.00  0.00    -0.032 A 
HETATM    5  C   UNL     1      -1.261   0.065  -0.002  1.00  0.00     0.059 A 
HETATM    6 CL   UNL     1       2.317   1.731   0.004  1.00  0.00    -0.082 Cl
HETATM    7  C   UNL     1      -0.775   2.558   0.003  1.00  0.00     0.050 C 
ENDROOT
BRANCH   1   8
HETATM    8  C   UNL     1       2.284  -1.555  -0.009  1.00  0.00     0.301 C 
HETATM    9  O   UNL     1       3.432  -1.123  -0.011  1.00  0.00    -0.259 OA
BRANCH   8  10
HETATM   10  O   UNL     1       1.996  -2.892  -0.012  1.00  0.00    -0.322 OA
HETATM   11  C   UNL     1       3.153  -3.729  -0.020  1.00  0.00     0.213 C 
ENDBRANCH   8  10
ENDBRANCH   1   8
TORSDOF 2
