REMARK  5 active torsions:
REMARK  status: ('A' for Active; 'I' for Inactive)
REMARK    1  A    between atoms: C_1  and  C_2 
REMARK    2  A    between atoms: N_3  and  C_8 
REMARK    3  A    between atoms: C_8  and  C_17 
REMARK    4  A    between atoms: C_10  and  O_16 
REMARK    5  A    between atoms: O_16  and  C_17 
ROOT
HETATM    1  C   UNL     1       0.625   1.125  -0.880  1.00  0.00     0.063 A 
HETATM    2  N   UNL     1       0.687   3.509  -1.315  1.00  0.00    -0.346 N 
ATOM      3  HN  UNL     1       1.019   4.442  -1.070  1.00  0.00     0.167 HD
HETATM    4  C   UNL     1       1.035   2.419  -0.590  1.00  0.00     0.106 A 
HETATM    5  C   UNL     1      -0.119   3.302  -2.377  1.00  0.00     0.142 A 
HETATM    6  C   UNL     1      -0.205   0.949  -1.993  1.00  0.00     0.022 A 
HETATM    7  C   UNL     1      -0.579   2.053  -2.758  1.00  0.00     0.057 A 
ENDROOT
BRANCH   5   8
HETATM    8  O   UNL     1      -0.502   4.380  -3.148  1.00  0.00    -0.323 OA
BRANCH   8   9
HETATM    9  C   UNL     1      -0.434   5.630  -2.438  1.00  0.00     0.281 C 
BRANCH   9  10
HETATM   10  C   UNL     1      -1.494   5.692  -1.351  1.00  0.00    -0.051 C 
BRANCH  10  11
HETATM   11  N   UNL     1      -2.374   5.743  -0.449  1.00  0.00    -0.368 N 
ATOM     12  HN2 UNL     1      -1.672   5.683  -1.186  1.00  0.00     0.165 HD
ATOM     13  HN1 UNL     1      -3.086   5.785   0.281  1.00  0.00     0.165 HD
ENDBRANCH  10  11
ENDBRANCH   9  10
ENDBRANCH   8   9
ENDBRANCH   5   8
BRANCH   1  14
HETATM   14  C   UNL     1       1.069  -0.029  -0.033  1.00  0.00     0.418 C 
HETATM   15  F   UNL     1       1.873   0.334   1.004  1.00  0.00    -0.166 F 
HETATM   16  F   UNL     1       1.773  -0.952  -0.744  1.00  0.00    -0.166 F 
HETATM   17  F   UNL     1       0.025  -0.703   0.523  1.00  0.00    -0.166 F 
ENDBRANCH   1  14
TORSDOF 5
