REMARK  3 active torsions:
REMARK  status: ('A' for Active; 'I' for Inactive)
REMARK    1  A    between atoms: C_1  and  C_2 
REMARK    2  A    between atoms: C_2  and  C_4 
REMARK    3  A    between atoms: C_2  and  O_6 
ROOT
HETATM    1  C   UNL     1      -0.616  -0.458  -1.694  1.00  0.00    -0.019 A 
HETATM    2  C   UNL     1      -0.232  -1.808  -1.698  1.00  0.00     0.010 A 
HETATM    3  C   UNL     1      -1.806  -0.101  -2.351  1.00  0.00     0.010 A 
HETATM    4  C   UNL     1      -2.600  -1.073  -2.973  1.00  0.00     0.001 A 
HETATM    5  C   UNL     1      -1.029  -2.776  -2.319  1.00  0.00     0.001 A 
HETATM    6  C   UNL     1      -2.216  -2.410  -2.950  1.00  0.00     0.000 A 
ENDROOT
BRANCH   1   7
HETATM    7  C   UNL     1       0.227   0.607  -1.019  1.00  0.00     0.252 C 
BRANCH   7   8
HETATM    8  C   UNL     1       1.631   0.776  -1.618  1.00  0.00     0.207 C 
HETATM    9  O   UNL     1       1.941   0.603  -2.789  1.00  0.00    -0.646 OA
HETATM   10  O   UNL     1       2.542   1.161  -0.685  1.00  0.00    -0.646 OA
ENDBRANCH   7   8
BRANCH   7  11
HETATM   11  O   UNL     1       0.401   0.332   0.380  1.00  0.00    -0.380 OA
HETATM   12  H   UNL     1       0.904  -0.490   0.489  1.00  0.00     0.211 HD
ENDBRANCH   7  11
ENDBRANCH   1   7
TORSDOF 3
