REMARK  3 active torsions:
REMARK  status: ('A' for Active; 'I' for Inactive)
REMARK    1  A    between atoms: S_1  and  C_2 
REMARK    2  A    between atoms: S_1  and  C_8 
REMARK    3  A    between atoms: C_3  and  N_10 
ROOT
HETATM    1  S   UNL     1       0.980   0.043  -0.018  1.00  0.00     0.209 S 
HETATM    2  O   UNL     1       0.546  -0.847   1.041  1.00  0.00    -0.217 OA
HETATM    3  O   UNL     1       0.466   1.398  -0.135  1.00  0.00    -0.217 OA
ENDROOT
BRANCH   1   4
HETATM    4  C   UNL     1       0.504  -0.729  -1.497  1.00  0.00     0.097 A 
HETATM    5  C   UNL     1       0.397  -2.138  -1.703  1.00  0.00     0.054 A 
HETATM    6  C   UNL     1       0.040  -2.448  -2.995  1.00  0.00     0.080 A 
HETATM    7  S   UNL     1      -0.240  -1.050  -3.941  1.00  0.00    -0.110 SA
HETATM    8  C   UNL     1       0.153  -0.022  -2.631  1.00  0.00     0.075 A 
BRANCH   5   9
HETATM    9  N   UNL     1       0.602  -3.094  -0.768  1.00  0.00    -0.397 N 
HETATM   10  H   UNL     1       0.856  -2.840   0.149  1.00  0.00     0.156 HD
HETATM   11  H   UNL     1       0.496  -4.044  -1.004  1.00  0.00     0.156 HD
ENDBRANCH   5   9
ENDBRANCH   1   4
BRANCH   1  12
HETATM   12  C   UNL     1       2.752   0.106  -0.004  1.00  0.00     0.064 A 
HETATM   13  C   UNL     1       3.404   1.344   0.045  1.00  0.00     0.024 A 
HETATM   14  C   UNL     1       4.796   1.391   0.148  1.00  0.00     0.002 A 
HETATM   15  C   UNL     1       5.534   0.206   0.200  1.00  0.00     0.000 A 
HETATM   16  C   UNL     1       4.882  -1.026   0.150  1.00  0.00     0.002 A 
HETATM   17  C   UNL     1       3.490  -1.081   0.053  1.00  0.00     0.024 A 
ENDBRANCH   1  12
TORSDOF 3
