REMARK  3 active torsions:
REMARK  status: ('A' for Active; 'I' for Inactive)
REMARK    1  A    between atoms: C_1  and  C_4 
REMARK    2  A    between atoms: C_2  and  C_9 
REMARK    3  A    between atoms: C_3  and  C_11 
ROOT
HETATM    1  C   UNL     1       4.153   1.118   0.435  1.00  0.00     0.057 A 
HETATM    2  N   UNL     1       3.992  -1.139  -0.427  1.00  0.00    -0.373 N 
ATOM      3  HN  UNL     1       4.438  -1.998  -0.749  1.00  0.00     0.164 HD
HETATM    4  C   UNL     1       2.759   1.227   0.454  1.00  0.00     0.041 A 
HETATM    5  C   UNL     1       1.989   0.144   0.034  1.00  0.00     0.034 A 
HETATM    6  C   UNL     1       4.717  -0.073  -0.006  1.00  0.00     0.106 A 
HETATM    7  C   UNL     1       2.645  -1.003  -0.397  1.00  0.00     0.108 A 
ENDROOT
BRANCH   5   8
HETATM    8  C   UNL     1       0.561   0.194   0.054  1.00  0.00    -0.060 C 
HETATM    9  C   UNL     1      -0.639   0.174   0.062  1.00  0.00    -0.061 C 
BRANCH   9  10
HETATM   10  C   UNL     1      -2.067   0.083   0.048  1.00  0.00     0.018 A 
HETATM   11  C   UNL     1      -2.691  -1.094   0.469  1.00  0.00     0.020 A 
HETATM   12  C   UNL     1      -4.081  -1.206   0.421  1.00  0.00     0.001 A 
HETATM   13  C   UNL     1      -4.850  -0.139  -0.044  1.00  0.00     0.000 A 
HETATM   14  C   UNL     1      -4.230   1.042  -0.454  1.00  0.00     0.001 A 
HETATM   15  C   UNL     1      -2.838   1.154  -0.408  1.00  0.00     0.020 A 
ENDBRANCH   9  10
ENDBRANCH   5   8
BRANCH   1  16
HETATM   16  C   UNL     1       5.056   2.201   0.866  1.00  0.00     0.210 C 
HETATM   17  O   UNL     1       6.271   2.152   0.876  1.00  0.00    -0.644 OA
HETATM   18  O   UNL     1       4.393   3.299   1.268  1.00  0.00    -0.644 OA
ENDBRANCH   1  16
TORSDOF 3
