REMARK  2 active torsions:
REMARK  status: ('A' for Active; 'I' for Inactive)
REMARK    1  A    between atoms: C_2  and  C_3 
REMARK    2  A    between atoms: C_3  and  O_8 
ROOT
HETATM    1  N   UNL     1       1.561   1.190  -0.289  1.00  0.00    -0.376 N 
HETATM    2  C   UNL     1       2.453   0.036   0.021  1.00  0.00     0.186 C 
HETATM    3  C   UNL     1       0.267   0.672  -0.089  1.00  0.00     0.035 A 
HETATM    4  C   UNL     1       1.624  -1.252  -0.185  1.00  0.00     0.076 C 
HETATM    5  C   UNL     1       0.236  -0.721  -0.060  1.00  0.00    -0.029 A 
HETATM    6  C   UNL     1      -0.902   1.407  -0.060  1.00  0.00     0.029 A 
HETATM    7  C   UNL     1      -0.958  -1.416   0.029  1.00  0.00     0.009 A 
HETATM    8  C   UNL     1      -2.116   0.722   0.039  1.00  0.00     0.002 A 
HETATM    9  C   UNL     1      -2.143  -0.680   0.085  1.00  0.00     0.001 A 
HETATM   10  H   UNL     1       1.817   2.099  -0.567  1.00  0.00     0.160 HD
ENDROOT
BRANCH   2  11
HETATM   11  C   UNL     1       3.717   0.025  -0.838  1.00  0.00     0.281 C 
HETATM   12  O   UNL     1       4.337  -0.988  -1.144  1.00  0.00    -0.263 OA
BRANCH  11  13
HETATM   13  O   UNL     1       4.118   1.295  -1.146  1.00  0.00    -0.325 OA
HETATM   14  C   UNL     1       5.287   1.362  -1.960  1.00  0.00     0.213 C 
ENDBRANCH  11  13
ENDBRANCH   2  11
TORSDOF 2
