REMARK  3 active torsions:
REMARK  status: ('A' for Active; 'I' for Inactive)
REMARK    1  A    between atoms: N_1  and  C_7 
REMARK    2  A    between atoms: C_5  and  C_10 
REMARK    3  A    between atoms: C_10  and  O_16 
ROOT
HETATM    1  N   UNL     1       1.008  -0.594  -0.072  1.00  0.00    -0.261 N 
HETATM    2  N   UNL     1      -0.239  -1.074  -0.322  1.00  0.00    -0.304 N 
ATOM      3  HN  UNL     1      -0.502  -2.034  -0.545  1.00  0.00     0.186 HD
HETATM    4  C   UNL     1       0.999   0.793   0.016  1.00  0.00     0.040 C 
HETATM    5  C   UNL     1      -0.334   1.181  -0.018  1.00  0.00     0.006 C 
HETATM    6  C   UNL     1      -1.040  -0.019  -0.212  1.00  0.00     0.119 C 
HETATM    7  C   UNL     1       2.202   1.670   0.024  1.00  0.00     0.071 C 
ENDROOT
BRANCH   1   8
HETATM    8  C   UNL     1       2.090  -1.510   0.058  1.00  0.00     0.056 A 
HETATM    9  C   UNL     1       2.038  -2.728  -0.641  1.00  0.00     0.034 A 
HETATM   10  C   UNL     1       3.099  -3.632  -0.550  1.00  0.00     0.044 A 
HETATM   11  C   UNL     1       4.185  -3.335   0.264  1.00  0.00     0.116 A 
HETATM   12  C   UNL     1       4.230  -2.151   0.994  1.00  0.00     0.044 A 
HETATM   13  F   UNL     1       5.198  -4.205   0.359  1.00  0.00    -0.206 F 
HETATM   14  C   UNL     1       3.182  -1.234   0.894  1.00  0.00     0.034 A 
ENDBRANCH   1   8
BRANCH   5  15
HETATM   15  C   UNL     1      -0.896   2.554   0.057  1.00  0.00     0.206 C 
BRANCH  15  16
HETATM   16  O   UNL     1      -0.485   3.225   1.243  1.00  0.00    -0.396 OA
HETATM   17  H   UNL     1      -0.802   2.737   2.018  1.00  0.00     0.209 HD
ENDBRANCH  15  16
ENDBRANCH   5  15
TORSDOF 3
