REMARK  3 active torsions:
REMARK  status: ('A' for Active; 'I' for Inactive)
REMARK    1  A    between atoms: C_1  and  C_6 
REMARK    2  A    between atoms: C_6  and  O_11 
REMARK    3  A    between atoms: C_10  and  N_12 
ROOT
HETATM    1  C   UNL     1      -2.549   0.032   0.015  1.00  0.00     0.081 A 
HETATM    2  S   UNL     1      -1.753  -1.479   0.037  1.00  0.00    -0.084 SA
HETATM    3  C   UNL     1      -1.638   1.071   0.005  1.00  0.00     0.038 A 
HETATM    4  C   UNL     1      -0.272   0.634   0.009  1.00  0.00    -0.015 A 
HETATM    5  C   UNL     1      -0.190  -0.758   0.025  1.00  0.00     0.016 A 
HETATM    6  C   UNL     1       0.935   1.376  -0.018  1.00  0.00     0.041 A 
HETATM    7  C   UNL     1       1.052  -1.418   0.012  1.00  0.00     0.022 A 
HETATM    8  C   UNL     1       2.181   0.738   0.011  1.00  0.00     0.026 A 
HETATM    9  C   UNL     1       2.223  -0.652  -0.018  1.00  0.00     0.030 A 
ENDROOT
BRANCH   1  10
HETATM   10  C   UNL     1      -4.000   0.081   0.007  1.00  0.00     0.299 C 
HETATM   11  O   UNL     1      -4.765  -0.878   0.010  1.00  0.00    -0.259 OA
BRANCH  10  12
HETATM   12  O   UNL     1      -4.412   1.384  -0.006  1.00  0.00    -0.322 OA
HETATM   13  C   UNL     1      -5.830   1.552  -0.012  1.00  0.00     0.213 C 
ENDBRANCH  10  12
ENDBRANCH   1  10
BRANCH   8  14
HETATM   14  N   UNL     1       3.354   1.481  -0.176  1.00  0.00    -0.399 N 
HETATM   15  H   UNL     1       3.322   2.465  -0.155  1.00  0.00     0.156 HD
HETATM   16  H   UNL     1       4.210   1.019  -0.328  1.00  0.00     0.156 HD
ENDBRANCH   8  14
TORSDOF 3
