REMARK  5 active torsions:
REMARK  status: ('A' for Active; 'I' for Inactive)
REMARK    1  A    between atoms: N_1  and  C_10 
REMARK    2  A    between atoms: C_4  and  C_5 
REMARK    3  A    between atoms: C_4  and  C_7 
REMARK    4  A    between atoms: N_6  and  C_11 
REMARK    5  A    between atoms: C_10  and  C_11 
ROOT
HETATM    1  N   UNL     1       1.396   0.026   0.236  1.00  0.00    -0.070 N 
HETATM    2  C   UNL     1       0.655   1.249  -0.112  1.00  0.00     0.235 C 
HETATM    3  C   UNL     1       0.679  -1.173  -0.235  1.00  0.00     0.235 C 
HETATM    4  C   UNL     1      -1.540   0.006  -0.054  1.00  0.00    -0.007 C 
HETATM    5  C   UNL     1      -0.771   1.233   0.447  1.00  0.00     0.032 C 
HETATM    6  C   UNL     1      -0.743  -1.251   0.317  1.00  0.00     0.032 C 
HETATM    7  H   UNL     1       1.469   0.002   1.253  1.00  0.00     0.279 HD
ENDROOT
BRANCH   1   8
HETATM    8  C   UNL     1       2.760   0.032  -0.342  1.00  0.00     0.262 C 
BRANCH   8   9
HETATM    9  C   UNL     1       3.681   1.133   0.225  1.00  0.00     0.257 C 
BRANCH   9  10
HETATM   10  N   UNL     1       5.041   1.031  -0.313  1.00  0.00    -0.078 N 
HETATM   11  H   UNL     1       5.619   1.773   0.082  1.00  0.00     0.274 HD
HETATM   12  H   UNL     1       5.012   1.127  -1.329  1.00  0.00     0.274 HD
HETATM   13  H   UNL     1       5.436   0.124  -0.069  1.00  0.00     0.274 HD
ENDBRANCH   9  10
ENDBRANCH   8   9
ENDBRANCH   1   8
BRANCH   4  14
HETATM   14  C   UNL     1      -2.973  -0.015   0.510  1.00  0.00     0.043 C 
BRANCH  14  15
HETATM   15  C   UNL     1      -3.809  -1.156  -0.024  1.00  0.00    -0.058 A 
HETATM   16  C   UNL     1      -4.345  -2.111   0.850  1.00  0.00     0.007 A 
HETATM   17  C   UNL     1      -5.077  -3.192   0.357  1.00  0.00     0.001 A 
HETATM   18  C   UNL     1      -5.282  -3.330  -1.015  1.00  0.00     0.000 A 
HETATM   19  C   UNL     1      -4.769  -2.378  -1.893  1.00  0.00     0.001 A 
HETATM   20  C   UNL     1      -4.045  -1.292  -1.401  1.00  0.00     0.007 A 
ENDBRANCH  14  15
ENDBRANCH   4  14
TORSDOF 5
