REMARK  4 active torsions:
REMARK  status: ('A' for Active; 'I' for Inactive)
REMARK    1  A    between atoms: N_1  and  C_2 
REMARK    2  A    between atoms: C_2  and  C_3 
REMARK    3  A    between atoms: C_5  and  C_11 
REMARK    4  A    between atoms: N_6  and  C_11 
ROOT
HETATM    1  C   UNL     1       2.946   0.036  -1.713  1.00  0.00    -0.032 A 
HETATM    2  C   UNL     1       2.412   1.081  -2.483  1.00  0.00     0.017 A 
HETATM    3  C   UNL     1       2.493   1.070  -3.884  1.00  0.00    -0.033 A 
HETATM    4  C   UNL     1       3.788  -0.979  -3.755  1.00  0.00     0.001 A 
HETATM    5  C   UNL     1       3.653  -0.985  -2.364  1.00  0.00     0.009 A 
HETATM    6  C   UNL     1       3.195   0.033  -4.512  1.00  0.00     0.009 A 
ENDROOT
BRANCH   1   7
HETATM    7  C   UNL     1       2.720  -0.006  -0.213  1.00  0.00     0.273 C 
BRANCH   7   8
HETATM    8  N   UNL     1       1.289  -0.001   0.168  1.00  0.00    -0.067 N 
HETATM    9  C   UNL     1       0.590  -1.206  -0.315  1.00  0.00     0.235 C 
HETATM   10  C   UNL     1      -0.899  -1.166   0.042  1.00  0.00     0.028 C 
HETATM   11  C   UNL     1      -1.092  -1.026   1.545  1.00  0.00     0.003 C 
HETATM   12  C   UNL     1      -0.320   0.183   2.057  1.00  0.00     0.028 C 
HETATM   13  C   UNL     1       1.151   0.130   1.628  1.00  0.00     0.235 C 
HETATM   14  H   UNL     1       0.850   0.804  -0.279  1.00  0.00     0.280 HD
ENDBRANCH   7   8
ENDBRANCH   1   7
BRANCH   3  15
HETATM   15  C   UNL     1       1.771   2.116  -4.693  1.00  0.00     0.268 C 
BRANCH  15  16
HETATM   16  N   UNL     1       2.671   2.871  -5.553  1.00  0.00    -0.075 N 
HETATM   17  H   UNL     1       2.137   3.564  -6.078  1.00  0.00     0.274 HD
HETATM   18  H   UNL     1       3.134   2.235  -6.202  1.00  0.00     0.274 HD
HETATM   19  H   UNL     1       3.371   3.343  -4.982  1.00  0.00     0.274 HD
ENDBRANCH  15  16
ENDBRANCH   3  15
TORSDOF 4
