REMARK  3 active torsions:
REMARK  status: ('A' for Active; 'I' for Inactive)
REMARK    1  A    between atoms: C_1  and  N_2 
REMARK    2  A    between atoms: C_3  and  C_6 
REMARK    3  A    between atoms: C_6  and  O_10 
ROOT
HETATM    1  C   UNL     1      -0.726   1.272   0.088  1.00  0.00     0.090 A 
HETATM    2  C   UNL     1      -1.108   0.067   0.708  1.00  0.00     0.004 A 
HETATM    3  N   UNL     1       0.565   1.500  -0.251  1.00  0.00    -0.356 N 
ATOM      4  HN  UNL     1       0.837   2.369  -0.711  1.00  0.00     0.166 HD
HETATM    5  C   UNL     1      -0.119  -0.885   1.007  1.00  0.00     0.014 A 
HETATM    6  C   UNL     1       1.486   0.552   0.033  1.00  0.00     0.089 A 
HETATM    7  C   UNL     1       1.199  -0.640   0.666  1.00  0.00     0.018 A 
ENDROOT
BRANCH   1   8
HETATM    8  N   UNL     1      -1.690   2.223  -0.255  1.00  0.00    -0.269 NA
HETATM    9  C   UNL     1      -1.335   3.117  -1.366  1.00  0.00     0.097 C 
HETATM   10  C   UNL     1      -2.649   3.677  -1.923  1.00  0.00     0.015 C 
HETATM   11  C   UNL     1      -3.482   4.365  -0.838  1.00  0.00     0.002 C 
HETATM   12  C   UNL     1      -3.633   3.491   0.410  1.00  0.00     0.015 C 
HETATM   13  C   UNL     1      -2.279   2.948   0.877  1.00  0.00     0.097 C 
ENDBRANCH   1   8
BRANCH   2  14
HETATM   14  C   UNL     1      -2.548  -0.292   0.984  1.00  0.00     0.206 C 
BRANCH  14  15
HETATM   15  O   UNL     1      -2.805  -0.403   2.382  1.00  0.00    -0.396 OA
HETATM   16  H   UNL     1      -2.252  -1.105   2.758  1.00  0.00     0.209 HD
ENDBRANCH  14  15
ENDBRANCH   2  14
TORSDOF 3
