REMARK  1 active torsions:
REMARK  status: ('A' for Active; 'I' for Inactive)
REMARK       I    between atoms: C_1  and  N_2 
REMARK    1  A    between atoms: C_1  and  C_3 
ROOT
HETATM    1  C   UNL     1       1.032   0.049  -0.073  1.00  0.00     0.225 C 
HETATM    2  N   UNL     1       0.243   0.459  -1.146  1.00  0.00    -0.352 N 
HETATM    3  O   UNL     1       2.131  -0.479  -0.275  1.00  0.00    -0.273 OA
HETATM    4  C   UNL     1       0.682   0.051  -2.478  1.00  0.00     0.125 C 
HETATM    5  C   UNL     1      -0.862   1.411  -1.057  1.00  0.00     0.125 C 
HETATM    6  C   UNL     1      -2.215   0.707  -0.998  1.00  0.00     0.020 C 
HETATM    7  C   UNL     1      -0.428  -0.125  -3.513  1.00  0.00     0.020 C 
HETATM    8  C   UNL     1      -1.653  -0.866  -2.978  1.00  0.00     0.002 C 
HETATM    9  C   UNL     1      -2.665   0.068  -2.312  1.00  0.00     0.002 C 
ENDROOT
BRANCH   1  10
HETATM   10  C   UNL     1       0.502   0.252   1.354  1.00  0.00     0.103 C 
HETATM   11  C   UNL     1       0.476  -1.076   2.126  1.00  0.00     0.246 C 
HETATM   12  N   UNL     1       1.782  -1.535   2.588  1.00  0.00    -0.074 N 
HETATM   13  C   UNL     1       2.485  -0.529   3.372  1.00  0.00     0.232 C 
HETATM   14  H   UNL     1       2.351  -1.773   1.775  1.00  0.00     0.277 HD
HETATM   15  H   UNL     1       1.629  -2.344   3.190  1.00  0.00     0.277 HD
HETATM   16  C   UNL     1       2.638   0.792   2.618  1.00  0.00     0.028 C 
HETATM   17  C   UNL     1       1.299   1.320   2.106  1.00  0.00     0.017 C 
ENDBRANCH   1  10
TORSDOF 1
