REMARK  2 active torsions:
REMARK  status: ('A' for Active; 'I' for Inactive)
REMARK    1  A    between atoms: N_1  and  C_2 
REMARK    2  A    between atoms: C_7  and  C_8 
ROOT
HETATM    1  C   UNL     1      -1.032  -0.010  -0.386  1.00  0.00     0.183 C 
HETATM    2  C   UNL     1      -0.322  -1.282   0.087  1.00  0.00     0.033 C 
HETATM    3  C   UNL     1      -0.343   1.264   0.118  1.00  0.00     0.033 C 
HETATM    4  C   UNL     1       1.160   1.260  -0.178  1.00  0.00     0.006 C 
HETATM    5  C   UNL     1       1.168  -1.243  -0.251  1.00  0.00     0.006 C 
HETATM    6  C   UNL     1       1.867  -0.007   0.337  1.00  0.00    -0.015 C 
ENDROOT
BRANCH   1   7
HETATM    7  N   UNL     1      -2.423  -0.028   0.063  1.00  0.00    -0.075 N 
HETATM    8  H   UNL     1      -2.878  -0.877  -0.274  1.00  0.00     0.274 HD
HETATM    9  H   UNL     1      -2.911   0.788  -0.306  1.00  0.00     0.274 HD
HETATM   10  H   UNL     1      -2.452  -0.010   1.083  1.00  0.00     0.274 HD
ENDBRANCH   1   7
BRANCH   6  11
HETATM   11  C   UNL     1       1.941  -0.004   1.880  1.00  0.00     0.000 C 
HETATM   12  C   UNL     1       2.645  -1.218   2.470  1.00  0.00     0.005 C 
ENDBRANCH   6  11
TORSDOF 2
