REMARK  1 active torsions:
REMARK  status: ('A' for Active; 'I' for Inactive)
REMARK    1  A    between atoms: C_7  and  C_8 
ROOT
HETATM    1  N   UNL     1      -0.025  -1.607  -0.018  1.00  0.00    -0.358 N 
HETATM    2  C   UNL     1      -0.729   0.516  -0.079  1.00  0.00    -0.000 A 
HETATM    3  C   UNL     1       0.692   0.497  -0.119  1.00  0.00    -0.023 A 
HETATM    4  C   UNL     1       1.092  -0.823  -0.072  1.00  0.00     0.017 A 
HETATM    5  C   UNL     1      -1.154  -0.814  -0.016  1.00  0.00     0.043 A 
HETATM    6  C   UNL     1      -1.699   1.540  -0.074  1.00  0.00     0.032 A 
HETATM    7  C   UNL     1      -3.059   1.197  -0.009  1.00  0.00     0.041 A 
HETATM    8  C   UNL     1      -2.504  -1.176   0.047  1.00  0.00     0.031 A 
HETATM    9  C   UNL     1      -3.450  -0.145   0.049  1.00  0.00     0.021 A 
HETATM   10  C   UNL     1       1.677   1.613  -0.169  1.00  0.00     0.041 C 
HETATM   11  C   UNL     1       2.492  -1.325  -0.010  1.00  0.00     0.057 C 
HETATM   12  C   UNL     1       3.012   1.160   0.449  1.00  0.00     0.005 C 
HETATM   13  C   UNL     1       3.499  -0.166  -0.167  1.00  0.00     0.006 C 
HETATM   14  H   UNL     1      -0.025  -2.591   0.014  1.00  0.00     0.166 HD
ENDROOT
BRANCH   7  15
HETATM   15  C   UNL     1      -4.123   2.234   0.007  1.00  0.00     0.209 C 
HETATM   16  O   UNL     1      -5.320   2.025   0.061  1.00  0.00    -0.644 OA
HETATM   17  O   UNL     1      -3.636   3.485  -0.045  1.00  0.00    -0.644 OA
ENDBRANCH   7  15
TORSDOF 1
