REMARK  2 active torsions:
REMARK  status: ('A' for Active; 'I' for Inactive)
REMARK    1  A    between atoms: C_1  and  C_7 
REMARK    2  A    between atoms: C_4  and  C_8 
ROOT
HETATM    1  C   UNK     1       0.632   0.900   0.752  1.00  0.00     0.117 A 
HETATM    2  N   UNK     1       0.420  -0.446   1.059  1.00  0.00    -0.344 N 
ATOM      3  HN  UNK     1       0.405  -0.828   2.005  1.00  0.00     0.167 HD
HETATM    4  C   UNK     1       0.241  -1.157  -0.038  1.00  0.00     0.085 A 
HETATM    5  S   UNK     1       0.360  -0.251  -1.502  1.00  0.00    -0.081 SA
HETATM    6  C   UNK     1       0.633   1.175  -0.603  1.00  0.00     0.088 A 
ENDROOT
BRANCH   4   7
HETATM    7  C   UNK     1       0.019  -2.615  -0.062  1.00  0.00    -0.002 A 
HETATM    8  C   UNK     1      -0.678  -3.258  -1.097  1.00  0.00     0.015 A 
HETATM    9  C   UNK     1      -0.842  -4.647  -1.099  1.00  0.00     0.007 A 
HETATM   10  C   UNK     1      -0.318  -5.427  -0.064  1.00  0.00    -0.062 A 
HETATM   11  C   UNK     1       0.357  -4.795   0.984  1.00  0.00     0.007 A 
HETATM   12  C   UNK     1      -0.480  -6.918  -0.098  1.00  0.00     0.048 C 
HETATM   13  C   UNK     1       0.517  -3.404   0.986  1.00  0.00     0.015 A 
ENDBRANCH   4   7
BRANCH   1  14
HETATM   14  C   UNK     1       0.839   1.925   1.770  1.00  0.00     0.227 C 
HETATM   15  O   UNK     1       1.033   3.113   1.546  1.00  0.00    -0.643 OA
HETATM   16  O   UNK     1       0.805   1.479   3.046  1.00  0.00    -0.643 OA
ENDBRANCH   1  14
TORSDOF 2
