REMARK  2 active torsions:
REMARK  status: ('A' for Active; 'I' for Inactive)
REMARK    1  A    between atoms: C_1  and  S_2 
REMARK    2  A    between atoms: S_2  and  N_7 
ROOT
HETATM    1  S   UNL     1      -1.760  -2.619   0.093  1.00  0.00     0.252 S 
HETATM    2  O   UNL     1      -2.706  -2.569  -1.003  1.00  0.00    -0.205 OA
HETATM    3  O   UNL     1      -0.777  -3.676   0.188  1.00  0.00    -0.205 OA
ENDROOT
BRANCH   1   4
HETATM    4  C   UNL     1      -0.901  -1.074  -0.004  1.00  0.00     0.139 A 
HETATM    5  S   UNL     1       0.812  -1.108  -0.080  1.00  0.00    -0.062 SA
HETATM    6  C   UNL     1       0.842   0.604  -0.138  1.00  0.00     0.048 A 
HETATM    7  N   UNL     1      -0.333   1.190  -0.107  1.00  0.00    -0.356 N 
HETATM    8  C   UNL     1       2.130   1.348  -0.206  1.00  0.00     0.076 C 
HETATM    9  C   UNL     1      -1.341   0.237  -0.048  1.00  0.00     0.036 A 
ATOM     10  HN  UNL     1      -0.483   2.199  -0.124  1.00  0.00     0.166 HD
HETATM   11  C   UNL     1      -2.744   0.727  -0.030  1.00  0.00     0.070 C 
ENDBRANCH   1   4
BRANCH   1  12
HETATM   12  N   UNL     1      -2.655  -2.607   1.566  1.00  0.00    -0.206 NA
HETATM   13  C   UNL     1      -1.788  -2.732   2.775  1.00  0.00     0.107 C 
HETATM   14  C   UNL     1      -2.618  -2.560   4.043  1.00  0.00     0.015 C 
HETATM   15  C   UNL     1      -3.755  -3.574   4.087  1.00  0.00     0.002 C 
HETATM   16  C   UNL     1      -4.611  -3.450   2.833  1.00  0.00     0.015 C 
HETATM   17  C   UNL     1      -3.767  -3.603   1.569  1.00  0.00     0.107 C 
ENDBRANCH   1  12
TORSDOF 2
