REMARK  1 active torsions:
REMARK  status: ('A' for Active; 'I' for Inactive)
REMARK    1  A    between atoms: C_1  and  C_2 
REMARK       I    between atoms: C_1  and  N_5 
ROOT
HETATM    1  C   UNL     1       0.283   1.074  -0.645  1.00  0.00     0.034 A 
HETATM    2  C   UNL     1      -0.784   1.824  -0.144  1.00  0.00     0.049 A 
HETATM    3  C   UNL     1      -1.484   2.713  -0.945  1.00  0.00     0.060 A 
HETATM    4  N   UNL     1      -2.576   3.316  -0.439  1.00  0.00    -0.363 N 
ATOM      5  HN  UNL     1      -2.884   3.156   0.520  1.00  0.00     0.165 HD
HETATM    6  N   UNL     1      -1.718   3.799  -3.083  1.00  0.00    -0.363 N 
ATOM      7  HN  UNL     1      -1.405   3.990  -4.035  1.00  0.00     0.165 HD
HETATM    8  C   UNL     1      -1.056   2.948  -2.275  1.00  0.00     0.059 A 
HETATM    9  C   UNL     1       0.728   1.338  -1.946  1.00  0.00     0.019 A 
HETATM   10  C   UNL     1       0.066   2.278  -2.742  1.00  0.00     0.033 A 
HETATM   11  C   UNL     1      -3.241   4.144  -1.271  1.00  0.00     0.105 A 
HETATM   12  C   UNL     1      -2.820   4.386  -2.563  1.00  0.00     0.105 A 
ENDROOT
BRANCH   1  13
HETATM   13  C   UNL     1       1.012   0.040   0.146  1.00  0.00     0.253 C 
HETATM   14  N   UNL     1       0.350  -0.794   1.053  1.00  0.00    -0.357 N 
HETATM   15  C   UNL     1       1.135  -1.778   1.784  1.00  0.00     0.152 C 
HETATM   16  C   UNL     1      -1.078  -0.803   1.341  1.00  0.00     0.152 C 
HETATM   17  O   UNL     1       2.220  -0.063  -0.076  1.00  0.00    -0.267 OA
ENDBRANCH   1  13
TORSDOF 1
