REMARK  3 active torsions:
REMARK  status: ('A' for Active; 'I' for Inactive)
REMARK       I    between atoms: N_1  and  C_2 
REMARK    1  A    between atoms: C_2  and  C_3 
REMARK    2  A    between atoms: C_3  and  S_5 
REMARK    3  A    between atoms: S_5  and  C_6 
ROOT
HETATM    1  N   UNL     1       1.384   0.025   0.214  1.00  0.00    -0.351 N 
HETATM    2  C   UNL     1       2.441  -0.045   1.123  1.00  0.00     0.229 C 
HETATM    3  O   UNL     1       2.821  -1.132   1.563  1.00  0.00    -0.273 OA
HETATM    4  C   UNL     1       0.780  -1.218  -0.272  1.00  0.00     0.125 C 
HETATM    5  C   UNL     1       0.677   1.235  -0.199  1.00  0.00     0.125 C 
HETATM    6  C   UNL     1      -0.774   1.189   0.279  1.00  0.00     0.020 C 
HETATM    7  C   UNL     1      -0.673  -1.332   0.184  1.00  0.00     0.020 C 
HETATM    8  C   UNL     1      -1.474  -0.085  -0.193  1.00  0.00     0.003 C 
ENDROOT
BRANCH   2   9
HETATM    9  C   UNL     1       3.084   1.276   1.571  1.00  0.00     0.182 C 
BRANCH   9  10
HETATM   10  S   UNL     1       4.830   1.021   2.057  1.00  0.00    -0.121 SA
BRANCH  10  11
HETATM   11  C   UNL     1       5.319   2.670   2.534  1.00  0.00     0.001 A 
HETATM   12  C   UNL     1       5.790   2.879   3.835  1.00  0.00     0.018 A 
HETATM   13  C   UNL     1       6.308   4.121   4.214  1.00  0.00     0.001 A 
HETATM   14  C   UNL     1       6.367   5.160   3.290  1.00  0.00     0.000 A 
HETATM   15  C   UNL     1       5.892   4.965   1.993  1.00  0.00     0.001 A 
HETATM   16  C   UNL     1       5.369   3.723   1.615  1.00  0.00     0.018 A 
ENDBRANCH  10  11
ENDBRANCH   9  10
ENDBRANCH   2   9
TORSDOF 3
