REMARK  3 active torsions:
REMARK  status: ('A' for Active; 'I' for Inactive)
REMARK    1  A    between atoms: C_1  and  C_2 
REMARK       I    between atoms: C_2  and  N_7 
REMARK    2  A    between atoms: C_3  and  O_4 
REMARK    3  A    between atoms: O_4  and  C_8 
ROOT
HETATM    1  C   UNL     1       1.271  -0.191  -0.329  1.00  0.00     0.065 C 
HETATM    2  C   UNL     1       0.683  -1.381  -0.812  1.00  0.00     0.085 C 
HETATM    3  C   UNL     1       0.557   1.006  -0.228  1.00  0.00     0.020 C 
HETATM    4  C   UNL     1      -0.699  -1.396  -0.958  1.00  0.00     0.038 C 
HETATM    5  C   UNL     1      -0.815   0.985  -0.446  1.00  0.00     0.001 C 
HETATM    6  C   UNL     1      -1.445  -0.224  -0.747  1.00  0.00     0.003 C 
ENDROOT
BRANCH   2   7
HETATM    7  O   UNL     1       1.537  -2.425  -1.001  1.00  0.00    -0.345 OA
BRANCH   7   8
HETATM    8  C   UNL     1       1.289  -3.620  -1.755  1.00  0.00     0.133 C 
HETATM    9  C   UNL     1       0.555  -3.493  -3.099  1.00  0.00     0.058 C 
HETATM   10  C   UNL     1      -0.133  -4.771  -3.585  1.00  0.00     0.170 C 
HETATM   11  O   UNL     1      -0.576  -5.622  -2.534  1.00  0.00    -0.391 OA
HETATM   12  C   UNL     1       0.490  -5.978  -1.662  1.00  0.00     0.170 C 
HETATM   13  C   UNL     1       0.838  -4.755  -0.840  1.00  0.00     0.058 C 
ENDBRANCH   7   8
ENDBRANCH   2   7
BRANCH   1  14
HETATM   14  C   UNL     1       2.509  -0.271   0.488  1.00  0.00     0.254 C 
HETATM   15  O   UNL     1       3.465   0.471   0.317  1.00  0.00    -0.268 OA
HETATM   16  N   UNL     1       2.357  -1.156   1.533  1.00  0.00    -0.361 N 
HETATM   17  C   UNL     1       3.275  -1.329   2.615  1.00  0.00     0.149 C 
HETATM   18  H   UNL     1       1.548  -1.717   1.534  1.00  0.00     0.162 HD
ENDBRANCH   1  14
TORSDOF 3
