REMARK  3 active torsions:
REMARK  status: ('A' for Active; 'I' for Inactive)
REMARK    1  A    between atoms: C_1  and  S_3 
REMARK    2  A    between atoms: C_2  and  C_4 
REMARK       I    between atoms: C_2  and  N_11 
REMARK    3  A    between atoms: S_3  and  C_12 
ROOT
HETATM    1  C   UNL     1       1.600  -5.488  -0.523  1.00  0.00     0.031 A 
HETATM    2  C   UNL     1       1.993  -4.347  -1.232  1.00  0.00     0.018 A 
HETATM    3  C   UNL     1       0.893  -5.344   0.675  1.00  0.00     0.018 A 
HETATM    4  C   UNL     1       0.978  -2.922   0.450  1.00  0.00     0.009 A 
HETATM    5  C   UNL     1       1.695  -3.071  -0.741  1.00  0.00     0.020 A 
HETATM    6  C   UNL     1       0.591  -4.066   1.159  1.00  0.00     0.020 A 
ENDROOT
BRANCH   1   7
HETATM    7  C   UNL     1       1.931  -6.821  -1.092  1.00  0.00     0.249 C 
HETATM    8  O   UNL     1       2.115  -6.976  -2.293  1.00  0.00    -0.268 OA
HETATM    9  N   UNL     1       2.063  -7.867  -0.222  1.00  0.00    -0.366 N 
HETATM   10  H   UNL     1       1.913  -7.729   0.741  1.00  0.00     0.159 HD
HETATM   11  H   UNL     1       2.308  -8.759  -0.559  1.00  0.00     0.159 HD
ENDBRANCH   1   7
BRANCH   4  12
HETATM   12  S   UNL     1       0.633  -1.317   1.141  1.00  0.00    -0.016 SA
BRANCH  12  13
HETATM   13  C   UNL     1      -0.443  -0.596  -0.111  1.00  0.00     0.448 C 
HETATM   14  F   UNL     1      -0.602  -1.368  -1.210  1.00  0.00    -0.160 F 
HETATM   15  F   UNL     1       0.048   0.597  -0.529  1.00  0.00    -0.160 F 
HETATM   16  F   UNL     1      -1.678  -0.361   0.396  1.00  0.00    -0.160 F 
ENDBRANCH  12  13
ENDBRANCH   4  12
TORSDOF 3
