REMARK  3 active torsions:
REMARK  status: ('A' for Active; 'I' for Inactive)
REMARK    1  A    between atoms: S_1  and  C_4 
REMARK    2  A    between atoms: S_1  and  C_5 
REMARK    3  A    between atoms: C_3  and  C_5 
ROOT
HETATM    1  C   UNL     1       0.499   0.673  -1.573  1.00  0.00     0.001 A 
HETATM    2  C   UNL     1      -0.177   1.628  -4.128  1.00  0.00    -0.062 A 
HETATM    3  C   UNL     1       0.620   2.032  -1.872  1.00  0.00     0.019 A 
HETATM    4  C   UNL     1       0.060  -0.210  -2.561  1.00  0.00     0.019 A 
HETATM    5  C   UNL     1       0.279   2.507  -3.141  1.00  0.00     0.008 A 
HETATM    6  C   UNL     1      -0.281   0.265  -3.831  1.00  0.00     0.008 A 
HETATM    7  C   UNL     1      -0.538   2.152  -5.487  1.00  0.00     0.048 C 
ENDROOT
BRANCH   1   8
HETATM    8  S   UNL     1       0.919   0.048   0.041  1.00  0.00    -0.123 SA
BRANCH   8   9
HETATM    9  C   UNL     1      -0.309   0.953   1.031  1.00  0.00     0.157 C 
BRANCH   9  10
HETATM   10  C   UNL     1      -0.193   0.584   2.493  1.00  0.00     0.132 C 
HETATM   11  O   UNL     1       0.081   1.433   3.346  1.00  0.00    -0.298 OA
HETATM   12  C   UNL     1      -0.502  -0.837   2.892  1.00  0.00     0.091 C 
ENDBRANCH   9  10
ENDBRANCH   8   9
ENDBRANCH   1   8
TORSDOF 3
