REMARK  2 active torsions:
REMARK  status: ('A' for Active; 'I' for Inactive)
REMARK       I    between atoms: C_1  and  N_2 
REMARK    1  A    between atoms: C_1  and  C_4 
REMARK    2  A    between atoms: N_2  and  C_7 
ROOT
HETATM    1  C   UNL     1       1.061   0.112  -0.165  1.00  0.00     0.256 C 
HETATM    2  N   UNL     1       0.304  -1.001   0.165  1.00  0.00    -0.323 N 
HETATM    3  O   UNL     1       0.615   1.185  -0.560  1.00  0.00    -0.267 OA
HETATM    4  H   UNL     1       0.790  -1.798   0.479  1.00  0.00     0.169 HD
ENDROOT
BRANCH   2   5
HETATM    5  C   UNL     1      -1.107  -1.094   0.091  1.00  0.00     0.037 A 
HETATM    6  C   UNL     1      -1.908  -0.154  -0.553  1.00  0.00     0.046 A 
HETATM    7  C   UNL     1      -3.282  -0.327  -0.536  1.00  0.00     0.090 A 
HETATM    8  N   UNL     1      -3.903  -1.360   0.069  1.00  0.00    -0.375 N 
HETATM    9  C   UNL     1      -3.108  -2.266   0.673  1.00  0.00     0.090 A 
ATOM     10  HN  UNL     1      -4.919  -1.451   0.070  1.00  0.00     0.164 HD
HETATM   11  C   UNL     1      -1.723  -2.187   0.699  1.00  0.00     0.046 A 
ENDBRANCH   2   5
BRANCH   1  12
HETATM   12  C   UNL     1       2.542  -0.004  -0.023  1.00  0.00     0.032 A 
HETATM   13  C   UNL     1       3.330   0.871  -0.788  1.00  0.00     0.017 A 
HETATM   14  C   UNL     1       4.721   0.847  -0.693  1.00  0.00     0.001 A 
HETATM   15  C   UNL     1       5.339  -0.050   0.173  1.00  0.00     0.000 A 
HETATM   16  C   UNL     1       4.567  -0.917   0.946  1.00  0.00     0.001 A 
HETATM   17  C   UNL     1       3.170  -0.896   0.856  1.00  0.00     0.017 A 
ENDBRANCH   1  12
TORSDOF 2
