REMARK  2 active torsions:
REMARK  status: ('A' for Active; 'I' for Inactive)
REMARK    1  A    between atoms: C_1  and  C_4 
REMARK    2  A    between atoms: C_2  and  C_3 
ROOT
HETATM    1  C   UNL     1       0.762   1.298  -0.008  1.00  0.00     0.071 A 
HETATM    2  C   UNL     1       1.511   0.116   0.003  1.00  0.00     0.067 A 
HETATM    3  N   UNL     1      -1.308   0.022  -0.007  1.00  0.00    -0.374 N 
ATOM      4  HN  UNL     1      -2.328  -0.005  -0.011  1.00  0.00     0.164 HD
HETATM    5  C   UNL     1      -0.630   1.194  -0.025  1.00  0.00     0.106 A 
HETATM    6  C   UNL     1       0.810  -1.108   0.024  1.00  0.00     0.034 A 
HETATM    7  C   UNL     1      -0.575  -1.105   0.016  1.00  0.00     0.088 A 
ENDROOT
BRANCH   2   8
HETATM    8  C   UNL     1       3.014   0.036  -0.031  1.00  0.00     0.418 C 
HETATM    9  F   UNL     1       3.683   1.180  -0.318  1.00  0.00    -0.166 F 
HETATM   10  F   UNL     1       3.526  -0.432   1.142  1.00  0.00    -0.166 F 
HETATM   11  F   UNL     1       3.434  -0.853  -0.981  1.00  0.00    -0.166 F 
ENDBRANCH   2   8
BRANCH   1  12
HETATM   12  C   UNL     1       1.292   2.668  -0.028  1.00  0.00     0.211 C 
HETATM   13  O   UNL     1       0.820   3.601  -0.650  1.00  0.00    -0.644 OA
HETATM   14  O   UNL     1       2.311   2.822   0.826  1.00  0.00    -0.644 OA
ENDBRANCH   1  12
TORSDOF 2
