REMARK  1 active torsions:
REMARK  status: ('A' for Active; 'I' for Inactive)
REMARK    1  A    between atoms: C_1  and  C_8 
REMARK       I    between atoms: N_4  and  C_6 
ROOT
HETATM    1  C   UNL     1      -1.585  -1.248  -0.066  1.00  0.00    -0.026 A 
HETATM    2  C   UNL     1      -1.818  -0.484   1.060  1.00  0.00     0.096 A 
HETATM    3  N   UNL     1      -1.564   0.829   0.749  1.00  0.00    -0.365 N 
HETATM    4  C   UNL     1      -1.158  -0.345  -1.096  1.00  0.00    -0.001 A 
HETATM    5  C   UNL     1      -1.183   0.943  -0.569  1.00  0.00     0.042 A 
HETATM    6  C   UNL     1      -0.775  -0.524  -2.441  1.00  0.00     0.014 A 
HETATM    7  C   UNL     1      -0.858   2.069  -1.334  1.00  0.00     0.030 A 
HETATM    8  C   UNL     1      -0.456   0.588  -3.221  1.00  0.00     0.001 A 
HETATM    9  C   UNL     1      -0.501   1.866  -2.673  1.00  0.00     0.002 A 
HETATM   10  H   UNL     1      -1.644   1.582   1.378  1.00  0.00     0.165 HD
ENDROOT
BRANCH   1  11
HETATM   11  C   UNL     1      -1.740  -2.724  -0.282  1.00  0.00     0.024 C 
HETATM   12  C   UNL     1      -1.708  -3.598   0.971  1.00  0.00     0.029 C 
HETATM   13  C   UNL     1      -1.714  -5.071   0.548  1.00  0.00     0.126 C 
HETATM   14  N   UNL     1      -2.839  -5.378  -0.341  1.00  0.00    -0.352 N 
HETATM   15  C   UNL     1      -3.003  -4.499  -1.499  1.00  0.00     0.126 C 
HETATM   16  C   UNL     1      -3.474  -6.606  -0.206  1.00  0.00     0.215 C 
HETATM   17  C   UNL     1      -3.019  -3.039  -1.073  1.00  0.00     0.029 C 
HETATM   18  O   UNL     1      -3.202  -7.404   0.692  1.00  0.00    -0.274 OA
HETATM   19  C   UNL     1      -4.541  -6.945  -1.217  1.00  0.00     0.117 C 
ENDBRANCH   1  11
TORSDOF 1
