REMARK  2 active torsions:
REMARK  status: ('A' for Active; 'I' for Inactive)
REMARK    1  A    between atoms: C_1  and  C_5 
REMARK    2  A    between atoms: C_5  and  C_7 
ROOT
HETATM    1  C   UNL     1      -1.599  -1.192   0.015  1.00  0.00    -0.020 A 
HETATM    2  N   UNL     1      -1.557   1.039  -0.021  1.00  0.00    -0.365 N 
HETATM    3  C   UNL     1      -2.381  -0.053  -0.030  1.00  0.00     0.097 A 
HETATM    4  C   UNL     1      -0.233  -0.754   0.012  1.00  0.00    -0.001 A 
HETATM    5  C   UNL     1      -0.241   0.642  -0.011  1.00  0.00     0.042 A 
HETATM    6  C   UNL     1       1.012  -1.416   0.024  1.00  0.00     0.014 A 
HETATM    7  C   UNL     1       0.931   1.408  -0.021  1.00  0.00     0.030 A 
HETATM    8  C   UNL     1       2.194  -0.665   0.000  1.00  0.00     0.001 A 
HETATM    9  C   UNL     1       2.151   0.726  -0.021  1.00  0.00     0.002 A 
HETATM   10  H   UNL     1      -1.862   1.975  -0.022  1.00  0.00     0.165 HD
ENDROOT
BRANCH   1  11
HETATM   11  C   UNL     1      -2.091  -2.604   0.052  1.00  0.00     0.154 C 
BRANCH  11  12
HETATM   12  C   UNL     1      -2.302  -3.100   1.464  1.00  0.00     0.177 C 
HETATM   13  O   UNL     1      -2.629  -2.458   2.448  1.00  0.00    -0.648 OA
HETATM   14  O   UNL     1      -2.147  -4.440   1.568  1.00  0.00    -0.648 OA
ENDBRANCH  11  12
ENDBRANCH   1  11
TORSDOF 2
