REMARK  1 active torsions:
REMARK  status: ('A' for Active; 'I' for Inactive)
REMARK    1  A    between atoms: C_1  and  N_8 
ROOT
HETATM    1  C   UNL     1       2.447   0.038  -0.088  1.00  0.00     0.143 A 
HETATM    2  N   UNL     1       1.600   1.034  -0.047  1.00  0.00    -0.336 N 
ATOM      3  HN  UNL     1       1.858   2.021  -0.038  1.00  0.00     0.168 HD
HETATM    4  S   UNL     1       1.756  -1.530  -0.042  1.00  0.00    -0.052 SA
HETATM    5  C   UNL     1       0.181  -0.838  -0.013  1.00  0.00     0.038 A 
HETATM    6  C   UNL     1       0.302   0.554  -0.018  1.00  0.00     0.051 A 
HETATM    7  C   UNL     1      -1.070  -1.475   0.008  1.00  0.00     0.063 A 
HETATM    8  C   UNL     1      -0.870   1.341   0.001  1.00  0.00     0.034 A 
HETATM    9  C   UNL     1      -2.206  -0.668   0.019  1.00  0.00     0.117 A 
HETATM   10  C   UNL     1      -2.122   0.717   0.017  1.00  0.00     0.044 A 
HETATM   11  F   UNL     1      -3.414  -1.248   0.029  1.00  0.00    -0.206 F 
ENDROOT
BRANCH   1  12
HETATM   12  N   UNL     1       3.776   0.212  -0.151  1.00  0.00    -0.380 N 
HETATM   13  H   UNL     1       4.153   1.121  -0.176  1.00  0.00     0.158 HD
HETATM   14  H   UNL     1       4.374  -0.570  -0.171  1.00  0.00     0.158 HD
ENDBRANCH   1  12
TORSDOF 1
