REMARK  1 active torsions:
REMARK  status: ('A' for Active; 'I' for Inactive)
REMARK    1  A    between atoms: C_1  and  C_5 
ROOT
HETATM    1  C   UNL     1       0.198  -1.199  -0.013  1.00  0.00     0.119 A 
HETATM    2  N   UNL     1       1.405  -0.663  -0.014  1.00  0.00    -0.357 N 
ATOM      3  HN  UNL     1       2.281  -1.185  -0.019  1.00  0.00     0.166 HD
HETATM    4  S   UNL     1      -1.109  -0.086  -0.002  1.00  0.00    -0.079 SA
HETATM    5  C   UNL     1       1.296   0.715  -0.007  1.00  0.00     0.096 A 
HETATM    6  C   UNL     1       0.010   1.211   0.000  1.00  0.00     0.069 A 
ENDROOT
BRANCH   1   7
HETATM    7  C   UNL     1      -0.046  -2.635  -0.019  1.00  0.00     0.179 C 
HETATM    8  O   UNL     1      -1.166  -3.154  -0.018  1.00  0.00    -0.291 OA
HETATM    9  C   UNL     1       1.183  -3.512  -0.026  1.00  0.00     0.099 C 
ENDBRANCH   1   7
TORSDOF 1
