REMARK  1 active torsions:
REMARK  status: ('A' for Active; 'I' for Inactive)
REMARK    1  A    between atoms: C_1  and  C_6 
ROOT
HETATM    1  C   UNL     1      -1.796  -0.415   0.031  1.00  0.00     0.209 A 
HETATM    2  N   UNL     1      -0.515  -0.873  -0.000  1.00  0.00    -0.308 N 
HETATM    3  N   UNL     1      -1.882   0.894   0.024  1.00  0.00    -0.279 N 
ATOM      4  HN  UNL     1      -2.730   1.461   0.041  1.00  0.00     0.188 HD
HETATM    5  C   UNL     1       0.275   0.256  -0.021  1.00  0.00     0.194 A 
HETATM    6  N   UNL     1      -0.594   1.330  -0.011  1.00  0.00    -0.274 N 
HETATM    7  S   UNL     1       1.924   0.401  -0.050  1.00  0.00    -0.039 SA
HETATM    8  C   UNL     1      -0.001  -2.233  -0.037  1.00  0.00     0.160 C 
HETATM    9  H   UNL     1      -0.320   2.276  -0.028  1.00  0.00     0.189 HD
ENDROOT
BRANCH   1  10
HETATM   10  C   UNL     1      -3.045  -1.292   0.080  1.00  0.00     0.450 C 
HETATM   11  F   UNL     1      -2.802  -2.629   0.101  1.00  0.00    -0.163 F 
HETATM   12  F   UNL     1      -3.800  -1.038   1.185  1.00  0.00    -0.163 F 
HETATM   13  F   UNL     1      -3.856  -1.080  -0.995  1.00  0.00    -0.163 F 
ENDBRANCH   1  10
TORSDOF 1
