REMARK  1 active torsions:
REMARK  status: ('A' for Active; 'I' for Inactive)
REMARK    1  A    between atoms: C_3  and  N_7 
ROOT
HETATM    1  C   UNL     1      -1.380  -0.090  -0.034  1.00  0.00     0.145 A 
HETATM    2  C   UNL     1      -0.763   1.155  -0.025  1.00  0.00     0.086 A 
HETATM    3  C   UNL     1      -0.639  -1.283  -0.077  1.00  0.00     0.065 A 
HETATM    4  C   UNL     1       0.754  -1.199  -0.013  1.00  0.00     0.035 A 
HETATM    5  C   UNL     1       0.622   1.210  -0.021  1.00  0.00     0.119 A 
HETATM    6  F   UNL     1      -2.722  -0.147  -0.025  1.00  0.00    -0.204 F 
HETATM    7  C   UNL     1       1.387   0.048  -0.009  1.00  0.00     0.044 A 
HETATM    8  F   UNL     1       1.235   2.401  -0.014  1.00  0.00    -0.206 F 
ENDROOT
BRANCH   3   9
HETATM    9  N   UNL     1      -1.274  -2.530   0.045  1.00  0.00    -0.397 N 
HETATM   10  H   UNL     1      -2.256  -2.589  -0.000  1.00  0.00     0.156 HD
HETATM   11  H   UNL     1      -0.737  -3.345   0.175  1.00  0.00     0.156 HD
ENDBRANCH   3   9
TORSDOF 1
