REMARK  1 active torsions:
REMARK  status: ('A' for Active; 'I' for Inactive)
REMARK    1  A    between atoms: C_3  and  O_7 
ROOT
HETATM    1  N   UNL     1      -1.660  -1.113  -0.001  1.00  0.00    -0.320 N 
ATOM      2  HN  UNL     1      -1.994  -2.077   0.000  1.00  0.00     0.169 HD
HETATM    3  C   UNL     1      -2.370  -0.018  -0.003  1.00  0.00     0.222 A 
HETATM    4  N   UNL     1      -1.615   1.113  -0.005  1.00  0.00    -0.320 N 
HETATM    5  C   UNL     1      -0.357  -0.668  -0.001  1.00  0.00     0.062 A 
HETATM    6  C   UNL     1      -0.300   0.725  -0.003  1.00  0.00     0.062 A 
HETATM    7  C   UNL     1       0.841  -1.399   0.001  1.00  0.00     0.032 A 
HETATM    8  C   UNL     1       0.896   1.446  -0.003  1.00  0.00     0.032 A 
HETATM    9  C   UNL     1       2.055  -0.700   0.000  1.00  0.00     0.002 A 
HETATM   10  C   UNL     1       2.079   0.698  -0.002  1.00  0.00     0.002 A 
HETATM   11  H   UNL     1      -1.951   2.039  -0.007  1.00  0.00     0.169 HD
ENDROOT
BRANCH   3  12
HETATM   12  O   UNL     1      -3.685  -0.011  -0.002  1.00  0.00    -0.332 OA
HETATM   13  H   UNL     1      -4.157  -0.821  -0.001  1.00  0.00     0.220 HD
ENDBRANCH   3  12
TORSDOF 1
