REMARK  0 active torsions:
REMARK  status: ('A' for Active; 'I' for Inactive)
ROOT
HETATM    1  N   UNL     1      -1.677  -0.497   0.304  1.00  0.00    -0.376 N 
ATOM      2  HN  UNL     1      -2.664  -0.671   0.496  1.00  0.00     0.164 HD
HETATM    3  N   UNL     1      -0.026  -0.056  -0.790  1.00  0.00    -0.379 N 
ATOM      4  HN  UNL     1      -1.025   0.014  -0.982  1.00  0.00     0.164 HD
HETATM    5  C   UNL     1       3.027   0.027  -0.090  1.00  0.00     0.036 A 
HETATM    6  C   UNL     1       1.723   0.138  -0.219  1.00  0.00     0.014 A 
HETATM    7  C   UNL     1      -0.656  -1.816  -0.186  1.00  0.00     0.084 A 
HETATM    8  C   UNL     1       0.475  -0.372   1.054  1.00  0.00     0.067 C 
HETATM    9  C   UNL     1      -1.039   1.124   0.474  1.00  0.00     0.084 A 
HETATM   10  C   UNL     1       1.005   0.117  -2.115  1.00  0.00     0.083 C 
HETATM   11  C   UNL     1       0.646   1.555   0.222  1.00  0.00     0.005 A 
HETATM   12  C   UNL     1       1.067  -1.635  -0.457  1.00  0.00     0.005 A 
HETATM   13  C   UNL     1       2.129  -0.270   1.330  1.00  0.00     0.050 A 
HETATM   14  C   UNL     1       2.581   0.119  -1.739  1.00  0.00    -0.003 C 
ENDROOT
TORSDOF 0
