REMARK  3 active torsions:
REMARK  status: ('A' for Active; 'I' for Inactive)
REMARK    1  A    between atoms: C_1  and  C_3 
REMARK       I    between atoms: C_1  and  N_4 
REMARK    2  A    between atoms: C_3  and  C_5 
REMARK    3  A    between atoms: C_6  and  O_11 
ROOT
HETATM    1  C   UNL     1       0.571  -0.563  -2.414  1.00  0.00    -0.049 A 
HETATM    2  C   UNL     1       1.091  -0.039  -5.109  1.00  0.00     0.065 A 
HETATM    3  C   UNL     1       0.878  -1.610  -3.295  1.00  0.00     0.010 A 
HETATM    4  C   UNL     1       0.521   0.750  -2.907  1.00  0.00     0.010 A 
HETATM    5  C   UNL     1       0.785   1.014  -4.253  1.00  0.00     0.037 A 
HETATM    6  C   UNL     1       1.138  -1.346  -4.640  1.00  0.00     0.037 A 
ENDROOT
BRANCH   1   7
HETATM    7  C   UNL     1       0.277  -0.847  -0.959  1.00  0.00     0.141 C 
BRANCH   7   8
HETATM    8  C   UNL     1       1.239  -0.167  -0.004  1.00  0.00     0.219 C 
HETATM    9  O   UNL     1       0.883   0.634   0.856  1.00  0.00    -0.273 OA
HETATM   10  N   UNL     1       2.548  -0.535  -0.117  1.00  0.00    -0.370 N 
HETATM   11  H   UNL     1       3.226  -0.132   0.472  1.00  0.00     0.159 HD
HETATM   12  H   UNL     1       2.815  -1.205  -0.788  1.00  0.00     0.159 HD
ENDBRANCH   7   8
ENDBRANCH   1   7
BRANCH   2  13
HETATM   13  O   UNL     1       1.349   0.172  -6.431  1.00  0.00    -0.361 OA
HETATM   14  H   UNL     1       1.325   1.041  -6.780  1.00  0.00     0.217 HD
ENDBRANCH   2  13
TORSDOF 3
