REMARK  4 active torsions:
REMARK  status: ('A' for Active; 'I' for Inactive)
REMARK    1  A    between atoms: N_1  and  C_4 
REMARK    2  A    between atoms: C_4  and  C_11 
REMARK    3  A    between atoms: C_5  and  O_12 
REMARK    4  A    between atoms: C_6  and  C_11 
ROOT
HETATM    1  C   UNL     1       5.100  -4.149  -0.466  1.00  0.00     0.068 A 
HETATM    2  C   UNL     1       4.233  -1.487  -0.134  1.00  0.00    -0.046 A 
HETATM    3  C   UNL     1       5.836  -3.092  -1.003  1.00  0.00     0.037 A 
HETATM    4  C   UNL     1       3.925  -3.877   0.231  1.00  0.00     0.037 A 
HETATM    5  C   UNL     1       5.413  -1.772  -0.837  1.00  0.00     0.011 A 
HETATM    6  C   UNL     1       3.492  -2.556   0.395  1.00  0.00     0.011 A 
ENDROOT
BRANCH   2   7
HETATM    7  C   UNL     1       3.719  -0.070  -0.034  1.00  0.00     0.142 C 
BRANCH   7   8
HETATM    8  C   UNL     1       2.823   0.256  -1.218  1.00  0.00    -0.073 C 
BRANCH   8   9
HETATM    9  N   UNL     1       2.080   0.527  -2.201  1.00  0.00    -0.369 N 
ATOM     10  HN2 UNL     1       2.706   0.326  -1.421  1.00  0.00     0.165 HD
ATOM     11  HN1 UNL     1       1.479   0.746  -2.995  1.00  0.00     0.165 HD
ENDBRANCH   8   9
ENDBRANCH   7   8
ENDBRANCH   2   7
BRANCH   1  12
HETATM   12  O   UNL     1       5.596  -5.395  -0.726  1.00  0.00    -0.356 OA
HETATM   13  C   UNL     1       5.269  -6.404   0.224  1.00  0.00     0.210 C 
ENDBRANCH   1  12
TORSDOF 4
