REMARK  5 active torsions:
REMARK  status: ('A' for Active; 'I' for Inactive)
REMARK    1  A    between atoms: CA_3  and  C_7 
REMARK    2  A    between atoms: C_5  and  C_9 
REMARK    3  A    between atoms: C_7  and  O_8 
REMARK    4  A    between atoms: C_9  and  C_10 
REMARK    5  A    between atoms: C_10  and  C_11 
ROOT
HETATM    1  N   UNL     1      -0.683   0.029   0.858  1.00  0.00    -0.346 N 
ATOM      2  HN  UNL     1      -1.249   0.140   1.699  1.00  0.00     0.167 HD
HETATM    3  CA  UNL     1      -0.103  -1.135   0.393  1.00  0.00     0.049 A 
HETATM    4  N   UNL     1       0.388   0.439  -1.036  1.00  0.00    -0.354 N 
HETATM    5  C   UNL     1      -0.355   0.967  -0.008  1.00  0.00     0.081 A 
HETATM    6  C   UNL     1       0.564  -0.893  -0.787  1.00  0.00     0.116 A 
HETATM    7  H   UNL     1       0.733   0.933  -1.814  1.00  0.00     0.166 HD
ENDROOT
BRANCH   5   8
HETATM    8  C   UNL     1      -0.715   2.413   0.043  1.00  0.00     0.076 C 
BRANCH   8   9
HETATM    9  C   UNL     1      -0.167   3.134   1.278  1.00  0.00     0.007 C 
BRANCH   9  10
HETATM   10  C   UNL     1       1.363   3.152   1.352  1.00  0.00    -0.004 C 
HETATM   11  C   UNL     1       1.849   3.913   2.577  1.00  0.00     0.005 C 
ENDBRANCH   9  10
ENDBRANCH   8   9
ENDBRANCH   5   8
BRANCH   3  12
HETATM   12  C   UNL     1      -0.276  -2.416   1.132  1.00  0.00     0.222 C 
BRANCH  12  13
HETATM   13  O   UNL     1      -1.653  -2.763   1.256  1.00  0.00    -0.395 OA
HETATM   14  H   UNL     1      -2.118  -2.070   1.751  1.00  0.00     0.209 HD
ENDBRANCH  12  13
ENDBRANCH   3  12
TORSDOF 5
