REMARK  0 active torsions:
REMARK  status: ('A' for Active; 'I' for Inactive)
ROOT
HETATM    1  S   UNL     1      -1.338   1.705   0.121  1.00  0.00     0.176 S 
HETATM    2  C   UNL     1       0.127   0.727   0.072  1.00  0.00     0.073 A 
HETATM    3  C   UNL     1       0.064  -0.665  -0.012  1.00  0.00     0.033 A 
HETATM    4  C   UNL     1      -1.219  -1.421  -0.028  1.00  0.00     0.162 C 
HETATM    5  C   UNL     1      -2.610   0.591  -0.402  1.00  0.00     0.153 C 
HETATM    6  O   UNL     1      -1.199   2.730  -0.894  1.00  0.00    -0.223 OA
HETATM    7  O   UNL     1      -1.560   2.034   1.514  1.00  0.00    -0.223 OA
HETATM    8  C   UNL     1       1.357   1.396   0.088  1.00  0.00     0.026 A 
HETATM    9  C   UNL     1      -2.489  -0.706   0.360  1.00  0.00     0.099 C 
HETATM   10  C   UNL     1       1.261  -1.394  -0.077  1.00  0.00     0.040 A 
HETATM   11  O   UNL     1      -1.222  -2.613  -0.315  1.00  0.00    -0.292 OA
HETATM   12  C   UNL     1       2.488  -0.729  -0.048  1.00  0.00     0.035 A 
HETATM   13  C   UNL     1       2.541   0.662   0.032  1.00  0.00     0.025 A 
HETATM   14 CL   UNL     1       3.951  -1.632  -0.107  1.00  0.00    -0.084 Cl
ENDROOT
TORSDOF 0
