REMARK  1 active torsions:
REMARK  status: ('A' for Active; 'I' for Inactive)
REMARK    1  A    between atoms: C_3  and  C_7 
ROOT
HETATM    1  N   UNL     1      -1.042  -0.053  -0.522  1.00  0.00    -0.351 N 
ATOM      2  HN  UNL     1      -1.949  -0.077  -0.988  1.00  0.00     0.166 HD
HETATM    3  C   UNL     1      -0.356  -1.116   0.022  1.00  0.00     0.059 A 
HETATM    4  N   UNL     1       0.878   0.657   0.320  1.00  0.00    -0.360 N 
HETATM    5  C   UNL     1      -0.282   0.998  -0.314  1.00  0.00     0.180 A 
HETATM    6  C   UNL     1       0.848  -0.691   0.543  1.00  0.00     0.119 A 
HETATM    7  H   UNL     1       1.606   1.271   0.571  1.00  0.00     0.166 HD
ENDROOT
BRANCH   3   8
HETATM    8  C   UNL     1      -0.836  -2.487  -0.007  1.00  0.00    -0.008 A 
HETATM    9  C   UNL     1      -1.686  -2.901  -1.040  1.00  0.00     0.014 A 
HETATM   10  C   UNL     1      -2.128  -4.225  -1.109  1.00  0.00     0.001 A 
HETATM   11  C   UNL     1      -1.737  -5.143  -0.136  1.00  0.00     0.000 A 
HETATM   12  C   UNL     1      -0.909  -4.737   0.909  1.00  0.00     0.001 A 
HETATM   13  C   UNL     1      -0.460  -3.416   0.974  1.00  0.00     0.014 A 
ENDBRANCH   3   8
TORSDOF 1
