REMARK  1 active torsions:
REMARK  status: ('A' for Active; 'I' for Inactive)
REMARK    1  A    between atoms: C_1  and  N_2 
ROOT
HETATM    1  C   UNL     1       0.000  -0.800  -0.042  1.00  0.00     0.077 A 
HETATM    2  C   UNL     1      -1.107  -0.020  -0.474  1.00  0.00     0.077 A 
HETATM    3  C   UNL     1       1.121  -0.039   0.387  1.00  0.00     0.077 A 
HETATM    4  N   UNL     1       0.017   2.089  -0.020  1.00  0.00    -0.372 N 
ATOM      5  HN  UNL     1       0.020   3.109  -0.006  1.00  0.00     0.164 HD
HETATM    6 CL   UNL     1      -2.647  -0.671  -0.933  1.00  0.00    -0.080 Cl
HETATM    7 CL   UNL     1       2.656  -0.721   0.825  1.00  0.00    -0.080 Cl
HETATM    8  C   UNL     1       1.068   1.358   0.400  1.00  0.00     0.113 A 
HETATM    9  C   UNL     1      -1.038   1.376  -0.459  1.00  0.00     0.113 A 
ENDROOT
BRANCH   1  10
HETATM   10  N   UNL     1      -0.030  -2.193  -0.004  1.00  0.00    -0.375 N 
HETATM   11  C   UNL     1      -0.560  -3.030  -1.095  1.00  0.00     0.150 C 
HETATM   12  C   UNL     1      -1.556  -4.069  -0.522  1.00  0.00     0.252 C 
HETATM   13  N   UNL     1      -0.948  -4.931   0.518  1.00  0.00    -0.072 N 
HETATM   14  C   UNL     1      -0.396  -4.070   1.585  1.00  0.00     0.252 C 
HETATM   15  H   UNL     1      -1.658  -5.550   0.909  1.00  0.00     0.277 HD
HETATM   16  H   UNL     1      -0.204  -5.497   0.109  1.00  0.00     0.277 HD
HETATM   17  C   UNL     1       0.577  -2.972   1.091  1.00  0.00     0.150 C 
ENDBRANCH   1  10
TORSDOF 1
