REMARK  3 active torsions:
REMARK  status: ('A' for Active; 'I' for Inactive)
REMARK    1  A    between atoms: C_1  and  N_2 
REMARK    2  A    between atoms: C_1  and  N_6 
REMARK    3  A    between atoms: N_2  and  C_3 
ROOT
HETATM    1  C   UNL     1      -1.139   0.400   1.102  1.00  0.00     0.040 A 
HETATM    2  C   UNL     1      -1.869  -0.720   0.659  1.00  0.00    -0.035 A 
HETATM    3  C   UNL     1      -1.838   1.533   1.539  1.00  0.00     0.030 A 
HETATM    4  C   UNL     1      -1.248  -2.001   0.169  1.00  0.00     0.050 C 
HETATM    5  C   UNL     1      -3.278  -0.668   0.677  1.00  0.00     0.009 A 
HETATM    6  C   UNL     1      -3.231   1.565   1.562  1.00  0.00     0.002 A 
HETATM    7  C   UNL     1      -3.953   0.463   1.130  1.00  0.00     0.001 A 
ENDROOT
BRANCH   1   8
HETATM    8  N   UNL     1       0.272   0.428   1.005  1.00  0.00    -0.333 N 
HETATM    9  H   UNL     1       0.662  -0.141   0.303  1.00  0.00     0.168 HD
BRANCH   8  10
HETATM   10  C   UNL     1       1.171   1.143   1.759  1.00  0.00     0.170 C 
HETATM   11  S   UNL     1       1.036   1.702   3.321  1.00  0.00    -0.041 SA
BRANCH  10  12
HETATM   12  N   UNL     1       2.351   1.337   1.098  1.00  0.00    -0.376 N 
HETATM   13  H   UNL     1       2.456   1.016   0.173  1.00  0.00     0.158 HD
HETATM   14  H   UNL     1       3.096   1.798   1.546  1.00  0.00     0.158 HD
ENDBRANCH  10  12
ENDBRANCH   8  10
ENDBRANCH   1   8
TORSDOF 3
