REMARK  1 active torsions:
REMARK  status: ('A' for Active; 'I' for Inactive)
REMARK    1  A    between atoms: C_1  and  C_2 
ROOT
HETATM    1  C   UNL     1      -2.119  -0.800  -0.001  1.00  0.00     0.046 A 
HETATM    2  C   UNL     1      -1.747   0.561  -0.007  1.00  0.00    -0.043 A 
HETATM    3  C   UNL     1      -1.122  -1.793  -0.002  1.00  0.00     0.020 A 
HETATM    4  C   UNL     1      -0.371   0.880   0.012  1.00  0.00     0.031 A 
HETATM    5  C   UNL     1       0.604  -0.118   0.020  1.00  0.00     0.034 A 
HETATM    6  C   UNL     1       0.233  -1.456   0.011  1.00  0.00     0.025 A 
HETATM    7 CL   UNL     1       2.269   0.311   0.026  1.00  0.00    -0.084 Cl
HETATM    8  C   UNL     1      -2.696   1.726  -0.057  1.00  0.00     0.049 C 
ENDROOT
BRANCH   1   9
HETATM    9  C   UNL     1      -3.514  -1.315  -0.025  1.00  0.00     0.209 C 
HETATM   10  O   UNL     1      -3.867  -2.359  -0.539  1.00  0.00    -0.644 OA
HETATM   11  O   UNL     1      -4.376  -0.569   0.680  1.00  0.00    -0.644 OA
ENDBRANCH   1   9
TORSDOF 1
