REMARK  2 active torsions:
REMARK  status: ('A' for Active; 'I' for Inactive)
REMARK    1  A    between atoms: C_1  and  C_2 
REMARK    2  A    between atoms: C_3  and  C_4 
REMARK       I    between atoms: C_4  and  N_9 
ROOT
HETATM    1  C   UNL     1       0.439  -0.247   1.370  1.00  0.00     0.063 A 
HETATM    2  C   UNL     1       0.401  -1.591   1.779  1.00  0.00     0.046 A 
HETATM    3  C   UNL     1       0.136   0.754   2.331  1.00  0.00     0.017 A 
HETATM    4  C   UNL     1       0.103  -1.892   3.125  1.00  0.00     0.018 A 
HETATM    5  C   UNL     1      -0.168   0.437   3.654  1.00  0.00     0.001 A 
HETATM    6  C   UNL     1      -0.178  -0.889   4.054  1.00  0.00     0.001 A 
ENDROOT
BRANCH   2   7
HETATM    7  C   UNL     1       0.687  -2.792   0.946  1.00  0.00     0.250 C 
HETATM    8  O   UNL     1       1.267  -3.760   1.423  1.00  0.00    -0.268 OA
HETATM    9  N   UNL     1       0.233  -2.843  -0.339  1.00  0.00    -0.366 N 
HETATM   10  H   UNL     1      -0.234  -2.068  -0.728  1.00  0.00     0.159 HD
HETATM   11  H   UNL     1       0.372  -3.655  -0.878  1.00  0.00     0.159 HD
ENDBRANCH   2   7
BRANCH   1  12
HETATM   12  C   UNL     1       0.817   0.259   0.004  1.00  0.00     0.418 C 
HETATM   13  F   UNL     1       1.181  -0.673  -0.910  1.00  0.00    -0.166 F 
HETATM   14  F   UNL     1       1.856   1.141   0.053  1.00  0.00    -0.166 F 
HETATM   15  F   UNL     1      -0.211   0.943  -0.577  1.00  0.00    -0.166 F 
ENDBRANCH   1  12
TORSDOF 2
