REMARK  2 active torsions:
REMARK  status: ('A' for Active; 'I' for Inactive)
REMARK       I    between atoms: C_1  and  N_2 
REMARK    1  A    between atoms: N_2  and  C_7 
REMARK    2  A    between atoms: C_6  and  C_7 
ROOT
HETATM    1  N   UNL     1      -2.257   4.188  -2.158  1.00  0.00    -0.375 N 
ATOM      2  HN  UNL     1      -2.372   4.738  -3.009  1.00  0.00     0.164 HD
HETATM    3  C   UNL     1      -1.632   2.115  -1.068  1.00  0.00    -0.025 A 
HETATM    4  C   UNL     1      -1.811   2.912  -2.194  1.00  0.00     0.096 A 
HETATM    5  C   UNL     1      -2.543   4.698  -0.942  1.00  0.00     0.087 A 
HETATM    6  C   UNL     1      -1.918   2.687   0.175  1.00  0.00     0.011 A 
HETATM    7  C   UNL     1      -2.388   3.996   0.242  1.00  0.00     0.018 A 
ENDROOT
BRANCH   3   8
HETATM    8  C   UNL     1      -1.140   0.705  -1.188  1.00  0.00     0.162 C 
BRANCH   8   9
HETATM    9  N   UNL     1       0.299   0.627  -1.103  1.00  0.00    -0.357 N 
HETATM   10  C   UNL     1       0.930  -0.593  -1.162  1.00  0.00     0.213 C 
HETATM   11  O   UNL     1       0.329  -1.657  -1.263  1.00  0.00    -0.274 OA
HETATM   12  C   UNL     1       2.432  -0.529  -1.095  1.00  0.00     0.117 C 
HETATM   13  H   UNL     1       0.830   1.449  -1.002  1.00  0.00     0.162 HD
ENDBRANCH   8   9
ENDBRANCH   3   8
TORSDOF 2
