REMARK  1 active torsions:
REMARK  status: ('A' for Active; 'I' for Inactive)
REMARK    1  A    between atoms: N_1  and  C_2 
REMARK       I    between atoms: N_1  and  C_3 
ROOT
HETATM    1  C   UNL     1       0.252   0.323  -1.292  1.00  0.00     0.040 A 
HETATM    2  C   UNL     1       0.742  -0.209  -2.495  1.00  0.00    -0.034 A 
HETATM    3  C   UNL     1       0.065   0.093  -3.690  1.00  0.00     0.032 A 
HETATM    4  C   UNL     1      -0.856   1.183  -1.302  1.00  0.00     0.032 A 
HETATM    5  C   UNL     1      -1.044   0.938  -3.690  1.00  0.00     0.034 A 
HETATM    6  C   UNL     1      -1.499   1.496  -2.499  1.00  0.00     0.026 A 
HETATM    7 CL   UNL     1      -1.855   1.287  -5.164  1.00  0.00    -0.084 Cl
HETATM    8  C   UNL     1       1.897  -1.171  -2.568  1.00  0.00     0.050 C 
ENDROOT
BRANCH   1   9
HETATM    9  N   UNL     1       0.909   0.055  -0.082  1.00  0.00    -0.327 N 
HETATM   10  C   UNL     1       0.363  -0.436   1.073  1.00  0.00     0.218 C 
HETATM   11  O   UNL     1       1.077  -0.581   2.067  1.00  0.00    -0.274 OA
HETATM   12  C   UNL     1      -1.075  -0.880   1.071  1.00  0.00     0.117 C 
HETATM   13  H   UNL     1       1.875   0.242  -0.062  1.00  0.00     0.169 HD
ENDBRANCH   1   9
TORSDOF 1
