REMARK  1 active torsions:
REMARK  status: ('A' for Active; 'I' for Inactive)
REMARK    1  A    between atoms: C_1  and  C_2 
REMARK       I    between atoms: C_2  and  N_6 
ROOT
HETATM    1  C   UNL     1       0.621   0.734   0.002  1.00  0.00     0.038 A 
HETATM    2  C   UNL     1       0.648  -0.683  -0.004  1.00  0.00    -0.040 A 
HETATM    3  C   UNL     1      -0.586  -1.392  -0.017  1.00  0.00    -0.055 A 
HETATM    4  C   UNL     1      -0.616   1.406   0.012  1.00  0.00     0.017 A 
HETATM    5  C   UNL     1       1.923  -1.491  -0.001  1.00  0.00     0.050 C 
HETATM    6  C   UNL     1      -1.815   0.703  -0.003  1.00  0.00     0.002 A 
HETATM    7  C   UNL     1      -1.801  -0.688  -0.019  1.00  0.00     0.007 A 
HETATM    8  C   UNL     1      -0.633  -2.899  -0.022  1.00  0.00     0.049 C 
ENDROOT
BRANCH   1   9
HETATM    9  C   UNL     1       1.859   1.574   0.047  1.00  0.00     0.249 C 
HETATM   10  O   UNL     1       2.883   1.235   0.628  1.00  0.00    -0.268 OA
HETATM   11  N   UNL     1       1.821   2.785  -0.594  1.00  0.00    -0.366 N 
HETATM   12  H   UNL     1       1.004   3.067  -1.064  1.00  0.00     0.159 HD
HETATM   13  H   UNL     1       2.611   3.372  -0.583  1.00  0.00     0.159 HD
ENDBRANCH   1   9
TORSDOF 1
