
 OpenBabel05141909002D

 14 14  0  0  0  0  0  0  0  0999 V2000
    7.5834   -1.7709    0.0000 C   0  0  0  0  0  0  0  0  0  0  0  0
    4.0000   -3.0250    0.0000 C   0  0  0  0  0  0  0  0  0  0  0  0
    6.8583   -1.3667    0.0000 N   0  0  0  0  0  0  0  0  0  0  0  0
    4.7209   -2.6167    0.0000 C   0  0  0  0  0  0  0  0  0  0  0  0
    8.3000   -1.3542    0.0000 O   0  0  0  0  0  0  0  0  0  0  0  0
    4.0000   -3.8542    0.0000 O   0  0  0  0  0  0  0  0  0  0  0  0
    5.4292   -3.0250    0.0000 C   0  0  0  0  0  0  0  0  0  0  0  0
    4.7209   -1.7876    0.0000 C   0  0  0  0  0  0  0  0  0  0  0  0
    6.1542   -1.7876    0.0000 C   0  0  0  0  0  0  0  0  0  0  0  0
    3.2875   -2.6167    0.0000 O   0  0  0  0  0  0  0  0  0  0  0  0
    6.1542   -2.6167    0.0000 C   0  0  0  0  0  0  0  0  0  0  0  0
    5.4292   -1.3751    0.0000 C   0  0  0  0  0  0  0  0  0  0  0  0
    2.5709   -3.0250    0.0000 C   0  0  0  0  0  0  0  0  0  0  0  0
    1.8583   -2.6167    0.0000 C   0  0  0  0  0  0  0  0  0  0  0  0
  2  4  1  0  0  0  0
  3  1  2  0  0  0  0
  4  8  2  0  0  0  0
  5  1  2  0  0  0  0
  6  2  2  0  0  0  0
  7 11  2  0  0  0  0
  7  4  1  0  0  0  0
  8 12  1  0  0  0  0
  9  3  1  0  0  0  0
 10  2  1  0  0  0  0
 11  9  1  0  0  0  0
 12  9  2  0  0  0  0
 13 10  1  0  0  0  0
 14 13  1  0  0  0  0
M  END
>  <MOLFORMULA>
C10 H9 N O3

>  <MOLWEIGHT>
1.911851000000000e+002

>  <code>
AC17031

>  <appearance>
solid

>  <purity>
97%

>  <product_name>
ethyl 4-isocyanatobenzoate

>  <cansmi>
CCOC(=O)c1ccc(cc1)N=C=O

>  <HBA2>
4

>  <HBD>
0

>  <logP>
1.8306

>  <TPSA>
55.73

>  <MW>
191.183

$$$$

 OpenBabel05141909002D

 12 12  0  0  0  0  0  0  0  0999 V2000
    7.0310   -5.5893    0.0000 C   0  0  0  0  0  0  0  0  0  0  0  0
    7.7464   -5.1768    0.0000 O   0  0  0  0  0  0  0  0  0  0  0  0
    5.6042   -6.4166    0.0000 C   0  0  0  0  0  0  0  0  0  0  0  0
    4.8793   -6.8291    0.0000 C   0  0  0  0  0  0  0  0  0  0  0  0
    5.6042   -5.5916    0.0000 C   0  0  0  0  0  0  0  0  0  0  0  0
    4.1709   -6.4166    0.0000 C   0  0  0  0  0  0  0  0  0  0  0  0
    4.8793   -5.1791    0.0000 C   0  0  0  0  0  0  0  0  0  0  0  0
    4.1709   -5.5916    0.0000 C   0  0  0  0  0  0  0  0  0  0  0  0
    6.3148   -5.1780    0.0000 N   0  0  0  0  0  0  0  0  0  0  0  0
    6.3208   -6.8283    0.0000 N   0  0  0  0  0  0  0  0  0  0  0  0
    6.3091   -7.6468    0.0000 O   0  0  0  0  0  0  0  0  0  0  0  0
    7.0307   -6.4129    0.0000 O   0  0  0  0  0  0  0  0  0  0  0  0
  1  2  2  0  0  0  0
  3 10  1  0  0  0  0
  4  3  2  0  0  0  0
  5  9  1  0  0  0  0
  5  3  1  0  0  0  0
  6  4  1  0  0  0  0
  6  8  2  0  0  0  0
  7  5  2  0  0  0  0
  8  7  1  0  0  0  0
  9  1  2  0  0  0  0
 10 11  2  0  0  0  0
 10 12  2  0  0  0  0
M  END
>  <MOLFORMULA>
C7 H4 N2 O3

>  <MOLWEIGHT>
1.641196000000000e+002

>  <code>
AC29669

>  <appearance>
solid

>  <purity>
97%

>  <product_name>
2-nitrophenyl isocyanate

>  <cansmi>
O=C=Nc1ccccc1N(=O)=O

>  <HBA2>
2

>  <HBD>
0

>  <logP>
2.0853

>  <TPSA>
75.25

>  <MW>
164.118

$$$$

 OpenBabel05141909002D

 12 12  0  0  0  0  0  0  0  0999 V2000
    7.1194   -2.8291    0.0000 C   0  0  0  0  0  0  0  0  0  0  0  0
    7.6390   -2.5291    0.0000 O   0  0  0  0  0  0  0  0  0  0  0  0
    5.0580   -3.4987    0.0000 C   0  0  0  0  0  0  0  0  0  0  0  0
    5.0378   -2.8980    0.0000 C   0  0  0  0  0  0  0  0  0  0  0  0
    5.5878   -3.7826    0.0000 C   0  0  0  0  0  0  0  0  0  0  0  0
    6.0807   -2.8630    0.0000 C   0  0  0  0  0  0  0  0  0  0  0  0
    6.1009   -3.4637    0.0000 C   0  0  0  0  0  0  0  0  0  0  0  0
    5.5509   -2.5790    0.0000 C   0  0  0  0  0  0  0  0  0  0  0  0
    6.5903   -2.5462    0.0000 N   0  0  0  0  0  0  0  0  0  0  0  0
    4.5461   -3.8177    0.0000 N   0  0  0  0  0  0  0  0  0  0  0  0
    4.5657   -4.4174    0.0000 O   0  0  0  0  0  0  0  0  0  0  0  0
    4.0170   -3.5349    0.0000 O   0  0  0  0  0  0  0  0  0  0  0  0
  1  2  2  0  0  0  0
  3 10  1  0  0  0  0
  4  3  1  0  0  0  0
  5  3  2  0  0  0  0
  6  7  2  0  0  0  0
  6  9  1  0  0  0  0
  7  5  1  0  0  0  0
  8  4  2  0  0  0  0
  8  6  1  0  0  0  0
  9  1  2  0  0  0  0
 10 11  2  0  0  0  0
 10 12  2  0  0  0  0
M  END
>  <MOLFORMULA>
C7 H4 N2 O3

>  <MOLWEIGHT>
1.641200000000000e+002

>  <code>
AC29670

>  <appearance>
solid

>  <purity>
97%

>  <product_name>
4-nitrophenyl isocyanate

>  <cansmi>
O=C=Nc1ccc(cc1)N(=O)=O

>  <HBA2>
2

>  <HBD>
0

>  <logP>
2.0853

>  <TPSA>
75.25

>  <MW>
164.118

$$$$

 OpenBabel05141909002D

 11 11  0  0  0  0  0  0  0  0999 V2000
    8.4042  -13.3417    0.0000 C   0  0  0  0  0  0  0  0  0  0  0  0
    9.4417  -13.3375    0.0000 C   0  0  0  0  0  0  0  0  0  0  0  0
    8.9167  -13.0417    0.0000 N   0  0  0  0  0  0  0  0  0  0  0  0
    7.8792  -13.0417    0.0000 C   0  0  0  0  0  0  0  0  0  0  0  0
    8.4042  -13.9500    0.0000 C   0  0  0  0  0  0  0  0  0  0  0  0
    9.9625  -13.0375    0.0000 O   0  0  0  0  0  0  0  0  0  0  0  0
    8.9250  -14.2500    0.0000 F   0  0  0  0  0  0  0  0  0  0  0  0
    7.8792  -12.4417    0.0000 F   0  0  0  0  0  0  0  0  0  0  0  0
    7.3667  -13.9500    0.0000 C   0  0  0  0  0  0  0  0  0  0  0  0
    7.3667  -13.3500    0.0000 C   0  0  0  0  0  0  0  0  0  0  0  0
    7.8792  -14.2500    0.0000 C   0  0  0  0  0  0  0  0  0  0  0  0
  2  3  2  0  0  0  0
  3  1  1  0  0  0  0
  4  1  2  0  0  0  0
  5  1  1  0  0  0  0
  6  2  2  0  0  0  0
  7  5  1  0  0  0  0
  8  4  1  0  0  0  0
  9 11  1  0  0  0  0
 10  4  1  0  0  0  0
 10  9  2  0  0  0  0
 11  5  2  0  0  0  0
M  END
>  <MOLFORMULA>
C7 H3 F2 N O

>  <MOLWEIGHT>
1.551027000000000e+002

>  <code>
AC30815

>  <appearance>
solid

>  <purity>
97%

>  <product_name>
2,6-difluorophenyl isocyanate

>  <cansmi>
O=C=Nc1c(F)cccc1F

>  <HBA2>
2

>  <HBD>
0

>  <logP>
1.9321

>  <TPSA>
29.43

>  <MW>
155.102

$$$$

