ZINC01565264
 OpenBabel02121623173D

 22 23  0  0  0  0  0  0  0  0999 V2000
   -1.7216    2.5284    1.4613 C   0  0  0  0  0  0  0  0  0  0  0  0
   -1.2412    2.3405    0.0209 C   0  0  0  0  0  0  0  0  0  0  0  0
   -0.0178    1.4607    0.0101 C   0  0  0  0  0  0  0  0  0  0  0  0
    1.2604    1.8706    0.0001 C   0  0  0  0  0  0  0  0  0  0  0  0
    2.0974    0.7881   -0.0137 N   0  0  0  0  0  0  0  0  0  0  0  0
    3.0663    0.8331   -0.0232 H   0  0  0  0  0  0  0  0  0  0  0  0
    1.3594   -0.3743   -0.0129 C   0  0  0  0  0  0  0  0  0  0  0  0
    0.0021   -0.0041    0.0020 C   0  0  0  0  0  0  0  0  0  0  0  0
   -0.9882   -0.9879    0.0069 C   0  0  0  0  0  0  0  0  0  0  0  0
   -0.6335   -2.3076   -0.0030 C   0  0  0  0  0  0  0  0  0  0  0  0
    0.7039   -2.6780   -0.0182 C   0  0  0  0  0  0  0  0  0  0  0  0
    1.6976   -1.7234   -0.0230 C   0  0  0  0  0  0  0  0  0  0  0  0
   -1.9683    1.5578    1.8916 H   0  0  0  0  0  0  0  0  0  0  0  0
   -0.9322    2.9965    2.0494 H   0  0  0  0  0  0  0  0  0  0  0  0
   -2.6065    3.1648    1.4691 H   0  0  0  0  0  0  0  0  0  0  0  0
   -0.9945    3.3112   -0.4094 H   0  0  0  0  0  0  0  0  0  0  0  0
   -2.0306    1.8724   -0.5672 H   0  0  0  0  0  0  0  0  0  0  0  0
    1.5808    2.9019    0.0018 H   0  0  0  0  0  0  0  0  0  0  0  0
   -2.0310   -0.7070    0.0184 H   0  0  0  0  0  0  0  0  0  0  0  0
   -1.4001   -3.0684    0.0012 H   0  0  0  0  0  0  0  0  0  0  0  0
    0.9686   -3.7250   -0.0261 H   0  0  0  0  0  0  0  0  0  0  0  0
    2.7355   -2.0217   -0.0342 H   0  0  0  0  0  0  0  0  0  0  0  0
  1  2  1  0  0  0  0
  1 13  1  0  0  0  0
  1 14  1  0  0  0  0
  1 15  1  0  0  0  0
  2  3  1  0  0  0  0
  2 16  1  0  0  0  0
  2 17  1  0  0  0  0
  3  8  1  0  0  0  0
  3  4  2  0  0  0  0
  4  5  1  0  0  0  0
  4 18  1  0  0  0  0
  5  6  1  0  0  0  0
  5  7  1  0  0  0  0
  7 12  2  0  0  0  0
  7  8  1  0  0  0  0
  8  9  2  0  0  0  0
  9 10  1  0  0  0  0
  9 19  1  0  0  0  0
 10 11  2  0  0  0  0
 10 20  1  0  0  0  0
 11 12  1  0  0  0  0
 11 21  1  0  0  0  0
 12 22  1  0  0  0  0
M  END
>  <cansmi>
CCc1c[nH]c2c1cccc2

>  <HBA2>
0

>  <HBD>
1

>  <logP>
2.7303

>  <TPSA>
15.79

>  <MW>
145.201

$$$$
ZINC36728545
 OpenBabel02121623173D

 48 51  0  0  1  0  0  0  0  0999 V2000
   -0.5962    0.9836   -0.9753 C   0  0  0  0  0  0  0  0  0  0  0  0
    0.5133    1.8118   -1.0443 C   0  0  0  0  0  0  0  0  0  0  0  0
    1.7888    1.2861   -0.9994 C   0  0  0  0  0  0  0  0  0  0  0  0
    1.9729   -0.0850   -0.8844 C   0  0  0  0  0  0  0  0  0  0  0  0
    0.8483   -0.9229   -0.8106 C   0  0  0  0  0  0  0  0  0  0  0  0
   -0.4373   -0.3806   -0.8582 C   0  0  0  0  0  0  0  0  0  0  0  0
    1.0429   -2.3813   -0.6787 C   0  0  0  0  0  0  0  0  0  0  0  0
    0.1359   -3.1726   -0.8287 O   0  0  0  0  0  0  0  0  0  0  0  0
    2.4546   -2.8209   -0.3433 C   0  0  2  0  0  0  0  0  0  0  0  0
    2.6575   -2.6514    0.7142 H   0  0  0  0  0  0  0  0  0  0  0  0
    3.3946   -1.9623   -1.2051 C   0  0  1  0  0  0  0  0  0  0  0  0
    3.1258   -2.0791   -2.2550 H   0  0  0  0  0  0  0  0  0  0  0  0
    3.2309   -0.5947   -0.8455 O   0  0  0  0  0  0  0  0  0  0  0  0
    4.8068   -2.4336   -1.0000 C   0  0  0  0  0  0  0  0  0  0  0  0
    5.0362   -3.7493   -0.8759 C   0  0  0  0  0  0  0  0  0  0  0  0
    3.9085   -4.6951   -0.9556 C   0  0  0  0  0  0  0  0  0  0  0  0
    2.6588   -4.2720   -0.6809 C   0  0  0  0  0  0  0  0  0  0  0  0
    1.6075   -5.1246   -0.7236 O   0  0  0  0  0  0  0  0  0  0  0  0
    4.1526   -6.1353   -1.3262 C   0  0  1  0  0  0  0  0  0  0  0  0
    3.2267   -6.7004   -1.2184 H   0  0  0  0  0  0  0  0  0  0  0  0
    4.6331   -6.2146   -2.7776 C   0  0  1  0  0  0  0  0  0  0  0  0
    5.5367   -5.6165   -2.8953 H   0  0  0  0  0  0  0  0  0  0  0  0
    4.9364   -7.6746   -3.1277 C   0  0  1  0  0  0  0  0  0  0  0  0
    5.3322   -7.7318   -4.1417 H   0  0  0  0  0  0  0  0  0  0  0  0
    5.9738   -8.2199   -2.1413 C   0  0  1  0  0  0  0  0  0  0  0  0
    6.9045   -7.6623   -2.2462 H   0  0  0  0  0  0  0  0  0  0  0  0
    5.4415   -8.0631   -0.7145 C   0  0  1  0  0  0  0  0  0  0  0  0
    6.1934   -8.4102   -0.0059 H   0  0  0  0  0  0  0  0  0  0  0  0
    5.1504   -6.6866   -0.4644 O   0  0  0  0  0  0  0  0  0  0  0  0
    4.1659   -8.8921   -0.5519 C   0  0  0  0  0  0  0  0  0  0  0  0
    3.7531   -8.8677    0.8160 O   0  0  0  0  0  0  0  0  0  0  0  0
    6.2119   -9.6022   -2.4143 O   0  0  0  0  0  0  0  0  0  0  0  0
    3.7373   -8.4467   -3.0384 O   0  0  0  0  0  0  0  0  0  0  0  0
    3.6137   -5.7158   -3.6460 O   0  0  0  0  0  0  0  0  0  0  0  0
    6.3000   -4.2074   -0.6783 O   0  0  0  0  0  0  0  0  0  0  0  0
   -1.5883    1.4090   -1.0088 H   0  0  0  0  0  0  0  0  0  0  0  0
    0.3784    2.8795   -1.1346 H   0  0  0  0  0  0  0  0  0  0  0  0
    2.6448    1.9424   -1.0542 H   0  0  0  0  0  0  0  0  0  0  0  0
   -1.3016   -1.0258   -0.8036 H   0  0  0  0  0  0  0  0  0  0  0  0
    5.6216   -1.7262   -0.9537 H   0  0  0  0  0  0  0  0  0  0  0  0
    1.8553   -6.0476   -0.8709 H   0  0  0  0  0  0  0  0  0  0  0  0
    3.3776   -8.4723   -1.1768 H   0  0  0  0  0  0  0  0  0  0  0  0
    4.3602   -9.9211   -0.8544 H   0  0  0  0  0  0  0  0  0  0  0  0
    2.9485   -9.3740    0.9931 H   0  0  0  0  0  0  0  0  0  0  0  0
    6.5470   -9.7752   -3.3047 H   0  0  0  0  0  0  0  0  0  0  0  0
    3.8560   -9.3833   -3.2477 H   0  0  0  0  0  0  0  0  0  0  0  0
    3.8508   -5.7364   -4.5833 H   0  0  0  0  0  0  0  0  0  0  0  0
    6.9695   -3.5107   -0.6410 H   0  0  0  0  0  0  0  0  0  0  0  0
  1  6  2  0  0  0  0
  1  2  1  0  0  0  0
  1 36  1  0  0  0  0
  2  3  2  0  0  0  0
  2 37  1  0  0  0  0
  3  4  1  0  0  0  0
  3 38  1  0  0  0  0
  4 13  1  0  0  0  0
  4  5  2  0  0  0  0
  5  6  1  0  0  0  0
  5  7  1  0  0  0  0
  6 39  1  0  0  0  0
  7  8  2  0  0  0  0
  7  9  1  0  0  0  0
  9 10  1  1  0  0  0
  9 17  1  0  0  0  0
  9 11  1  0  0  0  0
 11 12  1  6  0  0  0
 11 13  1  0  0  0  0
 11 14  1  0  0  0  0
 14 15  2  0  0  0  0
 14 40  1  0  0  0  0
 15 16  1  0  0  0  0
 15 35  1  0  0  0  0
 16 17  2  0  0  0  0
 16 19  1  0  0  0  0
 17 18  1  0  0  0  0
 18 41  1  0  0  0  0
 19 20  1  1  0  0  0
 19 29  1  0  0  0  0
 19 21  1  0  0  0  0
 21 22  1  6  0  0  0
 21 23  1  0  0  0  0
 21 34  1  0  0  0  0
 23 24  1  6  0  0  0
 23 25  1  0  0  0  0
 23 33  1  0  0  0  0
 25 26  1  6  0  0  0
 25 27  1  0  0  0  0
 25 32  1  0  0  0  0
 27 28  1  1  0  0  0
 27 29  1  0  0  0  0
 27 30  1  0  0  0  0
 30 31  1  0  0  0  0
 30 42  1  0  0  0  0
 30 43  1  0  0  0  0
 31 44  1  0  0  0  0
 32 45  1  0  0  0  0
 33 46  1  0  0  0  0
 34 47  1  0  0  0  0
 35 48  1  0  0  0  0
M  END
>  <cansmi>
OC[C@@H]1O[C@H]([C@@H]([C@@H]([C@@H]1O)O)O)C1=C(O)[C@H]2[C@H](C=C1O)Oc1c(C2=O)cccc1

>  <HBA2>
9

>  <HBD>
6

>  <logP>
-0.6435

>  <TPSA>
156.91

>  <MW>
392.357

$$$$
ZINC36728546
 OpenBabel02121623173D

 48 51  0  0  1  0  0  0  0  0999 V2000
   -0.1759    0.6328   -0.1786 C   0  0  0  0  0  0  0  0  0  0  0  0
    0.9910    1.3747   -0.2767 C   0  0  0  0  0  0  0  0  0  0  0  0
    2.2246    0.7567   -0.2422 C   0  0  0  0  0  0  0  0  0  0  0  0
    2.3087   -0.6231   -0.1085 C   0  0  0  0  0  0  0  0  0  0  0  0
    1.1258   -1.3741   -0.0185 C   0  0  0  0  0  0  0  0  0  0  0  0
   -0.1165   -0.7384   -0.0503 C   0  0  0  0  0  0  0  0  0  0  0  0
    1.2219   -2.8390    0.0993 C   0  0  0  0  0  0  0  0  0  0  0  0
    0.2478   -3.5502   -0.0295 O   0  0  0  0  0  0  0  0  0  0  0  0
    2.5901   -3.4174    0.3876 C   0  0  1  0  0  0  0  0  0  0  0  0
    2.6208   -4.4604    0.0726 H   0  0  0  0  0  0  0  0  0  0  0  0
    3.6288   -2.6090   -0.4023 C   0  0  1  0  0  0  0  0  0  0  0  0
    3.4776   -2.7525   -1.4722 H   0  0  0  0  0  0  0  0  0  0  0  0
    3.5168   -1.2261   -0.0619 O   0  0  0  0  0  0  0  0  0  0  0  0
    5.0071   -3.0871   -0.0061 C   0  0  0  0  0  0  0  0  0  0  0  0
    5.2462   -3.4199    1.2667 C   0  0  0  0  0  0  0  0  0  0  0  0
    4.1688   -3.3070    2.2657 C   0  0  0  0  0  0  0  0  0  0  0  0
    2.8869   -3.3247    1.8602 C   0  0  0  0  0  0  0  0  0  0  0  0
    1.8763   -3.2445    2.7581 O   0  0  0  0  0  0  0  0  0  0  0  0
    4.4991   -3.1891    3.7313 C   0  0  1  0  0  0  0  0  0  0  0  0
    3.5880   -2.9858    4.2940 H   0  0  0  0  0  0  0  0  0  0  0  0
    5.1203   -4.4996    4.2217 C   0  0  1  0  0  0  0  0  0  0  0  0
    6.0090   -4.7245    3.6321 H   0  0  0  0  0  0  0  0  0  0  0  0
    5.5082   -4.3514    5.6961 C   0  0  1  0  0  0  0  0  0  0  0  0
    6.0020   -5.2615    6.0365 H   0  0  0  0  0  0  0  0  0  0  0  0
    6.4641   -3.1637    5.8443 C   0  0  1  0  0  0  0  0  0  0  0  0
    7.3800   -3.3616    5.2875 H   0  0  0  0  0  0  0  0  0  0  0  0
    5.7910   -1.9048    5.2913 C   0  0  1  0  0  0  0  0  0  0  0  0
    6.4828   -1.0649    5.3549 H   0  0  0  0  0  0  0  0  0  0  0  0
    5.4279   -2.1207    3.9261 O   0  0  0  0  0  0  0  0  0  0  0  0
    4.5361   -1.5955    6.1101 C   0  0  0  0  0  0  0  0  0  0  0  0
    3.9932   -0.3408    5.6942 O   0  0  0  0  0  0  0  0  0  0  0  0
    6.7769   -2.9719    7.2254 O   0  0  0  0  0  0  0  0  0  0  0  0
    4.3344   -4.1231    6.4786 O   0  0  0  0  0  0  0  0  0  0  0  0
    4.1725   -5.5597    4.0802 O   0  0  0  0  0  0  0  0  0  0  0  0
    6.4772   -3.8598    1.6374 O   0  0  0  0  0  0  0  0  0  0  0  0
   -1.1340    1.1309   -0.1984 H   0  0  0  0  0  0  0  0  0  0  0  0
    0.9342    2.4481   -0.3816 H   0  0  0  0  0  0  0  0  0  0  0  0
    3.1258    1.3469   -0.3197 H   0  0  0  0  0  0  0  0  0  0  0  0
   -1.0252   -1.3170    0.0257 H   0  0  0  0  0  0  0  0  0  0  0  0
    5.7917   -3.1596   -0.7448 H   0  0  0  0  0  0  0  0  0  0  0  0
    2.1699   -3.1112    3.6698 H   0  0  0  0  0  0  0  0  0  0  0  0
    3.7970   -2.3811    5.9532 H   0  0  0  0  0  0  0  0  0  0  0  0
    4.7953   -1.5466    7.1677 H   0  0  0  0  0  0  0  0  0  0  0  0
    3.1940   -0.0802    6.1722 H   0  0  0  0  0  0  0  0  0  0  0  0
    7.2025   -3.7338    7.6418 H   0  0  0  0  0  0  0  0  0  0  0  0
    4.5063   -4.0196    7.4246 H   0  0  0  0  0  0  0  0  0  0  0  0
    4.4997   -6.4214    4.3725 H   0  0  0  0  0  0  0  0  0  0  0  0
    7.1157   -3.8989    0.9122 H   0  0  0  0  0  0  0  0  0  0  0  0
  1  6  2  0  0  0  0
  1  2  1  0  0  0  0
  1 36  1  0  0  0  0
  2  3  2  0  0  0  0
  2 37  1  0  0  0  0
  3  4  1  0  0  0  0
  3 38  1  0  0  0  0
  4 13  1  0  0  0  0
  4  5  2  0  0  0  0
  5  6  1  0  0  0  0
  5  7  1  0  0  0  0
  6 39  1  0  0  0  0
  7  8  2  0  0  0  0
  7  9  1  0  0  0  0
  9 10  1  6  0  0  0
  9 17  1  0  0  0  0
  9 11  1  0  0  0  0
 11 12  1  6  0  0  0
 11 13  1  0  0  0  0
 11 14  1  0  0  0  0
 14 15  2  0  0  0  0
 14 40  1  0  0  0  0
 15 16  1  0  0  0  0
 15 35  1  0  0  0  0
 16 17  2  0  0  0  0
 16 19  1  0  0  0  0
 17 18  1  0  0  0  0
 18 41  1  0  0  0  0
 19 20  1  1  0  0  0
 19 29  1  0  0  0  0
 19 21  1  0  0  0  0
 21 22  1  6  0  0  0
 21 23  1  0  0  0  0
 21 34  1  0  0  0  0
 23 24  1  1  0  0  0
 23 25  1  0  0  0  0
 23 33  1  0  0  0  0
 25 26  1  6  0  0  0
 25 27  1  0  0  0  0
 25 32  1  0  0  0  0
 27 28  1  1  0  0  0
 27 29  1  0  0  0  0
 27 30  1  0  0  0  0
 30 31  1  0  0  0  0
 30 42  1  0  0  0  0
 30 43  1  0  0  0  0
 31 44  1  0  0  0  0
 32 45  1  0  0  0  0
 33 46  1  0  0  0  0
 34 47  1  0  0  0  0
 35 48  1  0  0  0  0
M  END
>  <cansmi>
OC[C@@H]1O[C@H]([C@@H]([C@@H]([C@@H]1O)O)O)C1=C(O)[C@@H]2[C@H](C=C1O)Oc1c(C2=O)cccc1

>  <HBA2>
9

>  <HBD>
6

>  <logP>
-0.6435

>  <TPSA>
156.91

>  <MW>
392.357

$$$$
ZINC36728547
 OpenBabel02121623173D

 48 51  0  0  1  0  0  0  0  0999 V2000
   -0.1230    1.9081   -0.9420 C   0  0  0  0  0  0  0  0  0  0  0  0
    1.0562    2.6366   -0.9235 C   0  0  0  0  0  0  0  0  0  0  0  0
    2.2734    2.0049   -0.7678 C   0  0  0  0  0  0  0  0  0  0  0  0
    2.3285    0.6244   -0.6265 C   0  0  0  0  0  0  0  0  0  0  0  0
    1.1326   -0.1115   -0.6363 C   0  0  0  0  0  0  0  0  0  0  0  0
   -0.0924    0.5373   -0.7998 C   0  0  0  0  0  0  0  0  0  0  0  0
    1.1965   -1.5724   -0.4628 C   0  0  0  0  0  0  0  0  0  0  0  0
    0.1987   -2.2299   -0.2546 O   0  0  0  0  0  0  0  0  0  0  0  0
    2.5628   -2.2168   -0.5552 C   0  0  2  0  0  0  0  0  0  0  0  0
    2.5497   -3.1786   -0.0425 H   0  0  0  0  0  0  0  0  0  0  0  0
    3.5790   -1.2860    0.1204 C   0  0  2  0  0  0  0  0  0  0  0  0
    3.3680   -1.2157    1.1875 H   0  0  0  0  0  0  0  0  0  0  0  0
    3.5213    0.0057   -0.4874 O   0  0  0  0  0  0  0  0  0  0  0  0
    4.9633   -1.8535   -0.0966 C   0  0  0  0  0  0  0  0  0  0  0  0
    5.2603   -2.4317   -1.2652 C   0  0  0  0  0  0  0  0  0  0  0  0
    4.2403   -2.4996   -2.3266 C   0  0  0  0  0  0  0  0  0  0  0  0
    2.9391   -2.4181   -1.9985 C   0  0  0  0  0  0  0  0  0  0  0  0
    1.9795   -2.4995   -2.9506 O   0  0  0  0  0  0  0  0  0  0  0  0
    4.6501   -2.6746   -3.7662 C   0  0  1  0  0  0  0  0  0  0  0  0
    3.7625   -2.8207   -4.3817 H   0  0  0  0  0  0  0  0  0  0  0  0
    5.3994   -1.4261   -4.2391 C   0  0  1  0  0  0  0  0  0  0  0  0
    6.2648   -1.2562   -3.5986 H   0  0  0  0  0  0  0  0  0  0  0  0
    5.8648   -1.6359   -5.6833 C   0  0  1  0  0  0  0  0  0  0  0  0
    6.4472   -0.7735   -6.0077 H   0  0  0  0  0  0  0  0  0  0  0  0
    6.7337   -2.8956   -5.7503 C   0  0  1  0  0  0  0  0  0  0  0  0
    7.6261   -2.7554   -5.1403 H   0  0  0  0  0  0  0  0  0  0  0  0
    5.9329   -4.0873   -5.2190 C   0  0  1  0  0  0  0  0  0  0  0  0
    6.5606   -4.9784   -5.2244 H   0  0  0  0  0  0  0  0  0  0  0  0
    5.5042   -3.8143   -3.8834 O   0  0  0  0  0  0  0  0  0  0  0  0
    4.7108   -4.3187   -6.1099 C   0  0  0  0  0  0  0  0  0  0  0  0
    4.0475   -5.5184   -5.7065 O   0  0  0  0  0  0  0  0  0  0  0  0
    7.1153   -3.1411   -7.1054 O   0  0  0  0  0  0  0  0  0  0  0  0
    4.7274   -1.7919   -6.5342 O   0  0  0  0  0  0  0  0  0  0  0  0
    4.5292   -0.2944   -4.1761 O   0  0  0  0  0  0  0  0  0  0  0  0
    6.4973   -2.9539   -1.4732 O   0  0  0  0  0  0  0  0  0  0  0  0
   -1.0683    2.4162   -1.0637 H   0  0  0  0  0  0  0  0  0  0  0  0
    1.0220    3.7107   -1.0318 H   0  0  0  0  0  0  0  0  0  0  0  0
    3.1843    2.5849   -0.7562 H   0  0  0  0  0  0  0  0  0  0  0  0
   -1.0106   -0.0312   -0.8150 H   0  0  0  0  0  0  0  0  0  0  0  0
    5.7057   -1.7928    0.6855 H   0  0  0  0  0  0  0  0  0  0  0  0
    2.3171   -2.7085   -3.8324 H   0  0  0  0  0  0  0  0  0  0  0  0
    4.0266   -3.4756   -6.0144 H   0  0  0  0  0  0  0  0  0  0  0  0
    5.0302   -4.4115   -7.1479 H   0  0  0  0  0  0  0  0  0  0  0  0
    3.2615   -5.7281   -6.2293 H   0  0  0  0  0  0  0  0  0  0  0  0
    7.6232   -2.4230   -7.5072 H   0  0  0  0  0  0  0  0  0  0  0  0
    4.9487   -1.9290   -7.4655 H   0  0  0  0  0  0  0  0  0  0  0  0
    4.9391    0.5334   -4.4621 H   0  0  0  0  0  0  0  0  0  0  0  0
    7.0955   -2.8605   -0.7192 H   0  0  0  0  0  0  0  0  0  0  0  0
  1  6  2  0  0  0  0
  1  2  1  0  0  0  0
  1 36  1  0  0  0  0
  2  3  2  0  0  0  0
  2 37  1  0  0  0  0
  3  4  1  0  0  0  0
  3 38  1  0  0  0  0
  4 13  1  0  0  0  0
  4  5  2  0  0  0  0
  5  6  1  0  0  0  0
  5  7  1  0  0  0  0
  6 39  1  0  0  0  0
  7  8  2  0  0  0  0
  7  9  1  0  0  0  0
  9 10  1  1  0  0  0
  9 17  1  0  0  0  0
  9 11  1  0  0  0  0
 11 12  1  1  0  0  0
 11 13  1  0  0  0  0
 11 14  1  0  0  0  0
 14 15  2  0  0  0  0
 14 40  1  0  0  0  0
 15 16  1  0  0  0  0
 15 35  1  0  0  0  0
 16 17  2  0  0  0  0
 16 19  1  0  0  0  0
 17 18  1  0  0  0  0
 18 41  1  0  0  0  0
 19 20  1  6  0  0  0
 19 29  1  0  0  0  0
 19 21  1  0  0  0  0
 21 22  1  1  0  0  0
 21 23  1  0  0  0  0
 21 34  1  0  0  0  0
 23 24  1  6  0  0  0
 23 25  1  0  0  0  0
 23 33  1  0  0  0  0
 25 26  1  1  0  0  0
 25 27  1  0  0  0  0
 25 32  1  0  0  0  0
 27 28  1  6  0  0  0
 27 29  1  0  0  0  0
 27 30  1  0  0  0  0
 30 31  1  0  0  0  0
 30 42  1  0  0  0  0
 30 43  1  0  0  0  0
 31 44  1  0  0  0  0
 32 45  1  0  0  0  0
 33 46  1  0  0  0  0
 34 47  1  0  0  0  0
 35 48  1  0  0  0  0
M  END
>  <cansmi>
OC[C@@H]1O[C@H]([C@@H]([C@@H]([C@@H]1O)O)O)C1=C(O)[C@H]2[C@@H](C=C1O)Oc1c(C2=O)cccc1

>  <HBA2>
9

>  <HBD>
6

>  <logP>
-0.6435

>  <TPSA>
156.91

>  <MW>
392.357

$$$$
ZINC36728548
 OpenBabel02121623173D

 48 51  0  0  1  0  0  0  0  0999 V2000
   -0.0219    0.9922   -0.9876 C   0  0  0  0  0  0  0  0  0  0  0  0
    1.1618    1.7106   -1.0540 C   0  0  0  0  0  0  0  0  0  0  0  0
    2.3814    1.0680   -0.9834 C   0  0  0  0  0  0  0  0  0  0  0  0
    2.4334   -0.3122   -0.8438 C   0  0  0  0  0  0  0  0  0  0  0  0
    1.2339   -1.0397   -0.7808 C   0  0  0  0  0  0  0  0  0  0  0  0
    0.0061   -0.3792   -0.8517 C   0  0  0  0  0  0  0  0  0  0  0  0
    1.2876   -2.5095   -0.6417 C   0  0  0  0  0  0  0  0  0  0  0  0
    0.3089   -3.1709   -0.3660 O   0  0  0  0  0  0  0  0  0  0  0  0
    2.6505   -3.1343   -0.8680 C   0  0  1  0  0  0  0  0  0  0  0  0
    2.8676   -3.1818   -1.9351 H   0  0  0  0  0  0  0  0  0  0  0  0
    3.6690   -2.2242   -0.1623 C   0  0  2  0  0  0  0  0  0  0  0  0
    3.3906   -2.1194    0.8864 H   0  0  0  0  0  0  0  0  0  0  0  0
    3.6368   -0.9370   -0.7699 O   0  0  0  0  0  0  0  0  0  0  0  0
    5.0293   -2.8564   -0.2526 C   0  0  0  0  0  0  0  0  0  0  0  0
    5.1313   -4.1882   -0.1288 C   0  0  0  0  0  0  0  0  0  0  0  0
    3.9181   -4.9925    0.1026 C   0  0  0  0  0  0  0  0  0  0  0  0
    2.7146   -4.5113   -0.2670 C   0  0  0  0  0  0  0  0  0  0  0  0
    1.5863   -5.2384   -0.0874 O   0  0  0  0  0  0  0  0  0  0  0  0
    4.0231   -6.3570    0.7335 C   0  0  1  0  0  0  0  0  0  0  0  0
    3.0236   -6.7397    0.9405 H   0  0  0  0  0  0  0  0  0  0  0  0
    4.7457   -7.3081   -0.2241 C   0  0  1  0  0  0  0  0  0  0  0  0
    5.7299   -6.9054   -0.4636 H   0  0  0  0  0  0  0  0  0  0  0  0
    4.9018   -8.6756    0.4480 C   0  0  1  0  0  0  0  0  0  0  0  0
    5.4649   -9.3413   -0.2062 H   0  0  0  0  0  0  0  0  0  0  0  0
    5.6545   -8.4994    1.7704 C   0  0  1  0  0  0  0  0  0  0  0  0
    6.6571   -8.1208    1.5712 H   0  0  0  0  0  0  0  0  0  0  0  0
    4.8968   -7.5023    2.6510 C   0  0  1  0  0  0  0  0  0  0  0  0
    5.4502   -7.3405    3.5759 H   0  0  0  0  0  0  0  0  0  0  0  0
    4.7593   -6.2621    1.9546 O   0  0  0  0  0  0  0  0  0  0  0  0
    3.5102   -8.0608    2.9771 C   0  0  0  0  0  0  0  0  0  0  0  0
    2.8617   -7.2050    3.9201 O   0  0  0  0  0  0  0  0  0  0  0  0
    5.7438   -9.7584    2.4405 O   0  0  0  0  0  0  0  0  0  0  0  0
    3.6110   -9.2338    0.7015 O   0  0  0  0  0  0  0  0  0  0  0  0
    3.9824   -7.4486   -1.4239 O   0  0  0  0  0  0  0  0  0  0  0  0
    6.3453   -4.7919   -0.2167 O   0  0  0  0  0  0  0  0  0  0  0  0
   -0.9689    1.5089   -1.0379 H   0  0  0  0  0  0  0  0  0  0  0  0
    1.1294    2.7847   -1.1627 H   0  0  0  0  0  0  0  0  0  0  0  0
    3.2962    1.6395   -1.0371 H   0  0  0  0  0  0  0  0  0  0  0  0
   -0.9159   -0.9391   -0.8005 H   0  0  0  0  0  0  0  0  0  0  0  0
    5.9081   -2.2500   -0.4145 H   0  0  0  0  0  0  0  0  0  0  0  0
    1.7275   -6.0758    0.3752 H   0  0  0  0  0  0  0  0  0  0  0  0
    2.9157   -8.1129    2.0650 H   0  0  0  0  0  0  0  0  0  0  0  0
    3.6114   -9.0593    3.4024 H   0  0  0  0  0  0  0  0  0  0  0  0
    1.9758   -7.4984    4.1733 H   0  0  0  0  0  0  0  0  0  0  0  0
    6.2091  -10.4400    1.9365 H   0  0  0  0  0  0  0  0  0  0  0  0
    3.6345  -10.1019    1.1269 H   0  0  0  0  0  0  0  0  0  0  0  0
    4.3820   -8.0388   -2.0775 H   0  0  0  0  0  0  0  0  0  0  0  0
    7.0786   -4.1803   -0.3697 H   0  0  0  0  0  0  0  0  0  0  0  0
  1  6  2  0  0  0  0
  1  2  1  0  0  0  0
  1 36  1  0  0  0  0
  2  3  2  0  0  0  0
  2 37  1  0  0  0  0
  3  4  1  0  0  0  0
  3 38  1  0  0  0  0
  4 13  1  0  0  0  0
  4  5  2  0  0  0  0
  5  6  1  0  0  0  0
  5  7  1  0  0  0  0
  6 39  1  0  0  0  0
  7  8  2  0  0  0  0
  7  9  1  0  0  0  0
  9 10  1  6  0  0  0
  9 17  1  0  0  0  0
  9 11  1  0  0  0  0
 11 12  1  1  0  0  0
 11 13  1  0  0  0  0
 11 14  1  0  0  0  0
 14 15  2  0  0  0  0
 14 40  1  0  0  0  0
 15 16  1  0  0  0  0
 15 35  1  0  0  0  0
 16 17  2  0  0  0  0
 16 19  1  0  0  0  0
 17 18  1  0  0  0  0
 18 41  1  0  0  0  0
 19 20  1  1  0  0  0
 19 29  1  0  0  0  0
 19 21  1  0  0  0  0
 21 22  1  6  0  0  0
 21 23  1  0  0  0  0
 21 34  1  0  0  0  0
 23 24  1  6  0  0  0
 23 25  1  0  0  0  0
 23 33  1  0  0  0  0
 25 26  1  6  0  0  0
 25 27  1  0  0  0  0
 25 32  1  0  0  0  0
 27 28  1  1  0  0  0
 27 29  1  0  0  0  0
 27 30  1  0  0  0  0
 30 31  1  0  0  0  0
 30 42  1  0  0  0  0
 30 43  1  0  0  0  0
 31 44  1  0  0  0  0
 32 45  1  0  0  0  0
 33 46  1  0  0  0  0
 34 47  1  0  0  0  0
 35 48  1  0  0  0  0
M  END
>  <cansmi>
OC[C@@H]1O[C@H]([C@@H]([C@@H]([C@@H]1O)O)O)C1=C(O)[C@@H]2[C@@H](C=C1O)Oc1c(C2=O)cccc1

>  <HBA2>
9

>  <HBD>
6

>  <logP>
-0.6435

>  <TPSA>
156.91

>  <MW>
392.357

$$$$
ZINC03869685
 OpenBabel02121623173D

 32 34  0  0  0  0  0  0  0  0999 V2000
    0.9741   -0.2755   -0.9644 C   0  0  0  0  0  0  0  0  0  0  0  0
    2.1569    0.4329   -0.9701 C   0  0  0  0  0  0  0  0  0  0  0  0
    2.3856    1.4156   -0.0177 C   0  0  0  0  0  0  0  0  0  0  0  0
    1.4203    1.6918    0.9495 C   0  0  0  0  0  0  0  0  0  0  0  0
    0.2328    0.9863    0.9617 C   0  0  0  0  0  0  0  0  0  0  0  0
    0.0021   -0.0041    0.0020 C   0  0  0  0  0  0  0  0  0  0  0  0
   -1.2637   -0.7605    0.0100 C   0  0  0  0  0  0  0  0  0  0  0  0
   -2.4363   -0.0759    0.1235 C   0  0  0  0  0  0  0  0  0  0  0  0
   -3.6628   -0.7894    0.1327 C   0  0  0  0  0  0  0  0  0  0  0  0
   -4.7327   -0.2102    0.2323 O   0  0  0  0  0  0  0  0  0  0  0  0
   -3.5946   -2.2549    0.0170 C   0  0  0  0  0  0  0  0  0  0  0  0
   -4.7561   -3.0387    0.0170 C   0  0  0  0  0  0  0  0  0  0  0  0
   -4.6504   -4.4123   -0.0941 C   0  0  0  0  0  0  0  0  0  0  0  0
   -3.3994   -5.0103   -0.2044 C   0  0  0  0  0  0  0  0  0  0  0  0
   -2.2463   -4.2416   -0.2047 C   0  0  0  0  0  0  0  0  0  0  0  0
   -2.3316   -2.8618   -0.0952 C   0  0  0  0  0  0  0  0  0  0  0  0
   -1.2182   -2.0992   -0.1003 O   0  0  0  0  0  0  0  0  0  0  0  0
   -3.3070   -6.3605   -0.3125 O   0  0  0  0  0  0  0  0  0  0  0  0
   -5.9758   -2.4535    0.1257 O   0  0  0  0  0  0  0  0  0  0  0  0
   -2.4312    1.2810    0.2275 O   0  0  0  0  0  0  0  0  0  0  0  0
    1.6480    2.6557    1.8815 O   0  0  0  0  0  0  0  0  0  0  0  0
    3.5534    2.1101   -0.0273 O   0  0  0  0  0  0  0  0  0  0  0  0
    0.7971   -1.0371   -1.7094 H   0  0  0  0  0  0  0  0  0  0  0  0
    2.9075    0.2221   -1.7176 H   0  0  0  0  0  0  0  0  0  0  0  0
   -0.5155    1.1988    1.7108 H   0  0  0  0  0  0  0  0  0  0  0  0
   -5.5413   -5.0229   -0.0948 H   0  0  0  0  0  0  0  0  0  0  0  0
   -1.2805   -4.7174   -0.2903 H   0  0  0  0  0  0  0  0  0  0  0  0
   -3.3257   -6.6843   -1.2235 H   0  0  0  0  0  0  0  0  0  0  0  0
   -6.3751   -2.2160   -0.7224 H   0  0  0  0  0  0  0  0  0  0  0  0
   -3.3120    1.6729    0.3033 H   0  0  0  0  0  0  0  0  0  0  0  0
    1.3508    3.5370    1.6166 H   0  0  0  0  0  0  0  0  0  0  0  0
    3.5287    2.9137   -0.5647 H   0  0  0  0  0  0  0  0  0  0  0  0
  1  6  2  0  0  0  0
  1  2  1  0  0  0  0
  1 23  1  0  0  0  0
  2  3  2  0  0  0  0
  2 24  1  0  0  0  0
  3  4  1  0  0  0  0
  3 22  1  0  0  0  0
  4  5  2  0  0  0  0
  4 21  1  0  0  0  0
  5  6  1  0  0  0  0
  5 25  1  0  0  0  0
  6  7  1  0  0  0  0
  7 17  1  0  0  0  0
  7  8  2  0  0  0  0
  8  9  1  0  0  0  0
  8 20  1  0  0  0  0
  9 10  2  0  0  0  0
  9 11  1  0  0  0  0
 11 16  2  0  0  0  0
 11 12  1  0  0  0  0
 12 13  2  0  0  0  0
 12 19  1  0  0  0  0
 13 14  1  0  0  0  0
 13 26  1  0  0  0  0
 14 15  2  0  0  0  0
 14 18  1  0  0  0  0
 15 16  1  0  0  0  0
 15 27  1  0  0  0  0
 16 17  1  0  0  0  0
 18 28  1  0  0  0  0
 19 29  1  0  0  0  0
 20 30  1  0  0  0  0
 21 31  1  0  0  0  0
 22 32  1  0  0  0  0
M  END
>  <cansmi>
Oc1cc(O)c2c(c1)oc(c(c2=O)O)c1ccc(c(c1)O)O

>  <HBA2>
7

>  <HBD>
5

>  <logP>
1.988

>  <TPSA>
131.36

>  <MW>
302.236

$$$$
ZINC03995861
 OpenBabel02121623173D

 40 44  0  0  1  0  0  0  0  0999 V2000
   -0.0248    1.6132    1.3366 C   0  0  0  0  0  0  0  0  0  0  0  0
    0.2309    0.1050    1.3666 C   0  0  1  0  0  0  0  0  0  0  0  0
   -0.1809   -0.5061    0.0397 C   0  0  1  0  0  0  0  0  0  0  0  0
   -0.2011    0.2682   -0.7272 H   0  0  0  0  0  0  0  0  0  0  0  0
    0.6875   -1.6677   -0.4319 C   0  0  1  0  0  0  0  0  0  0  0  0
    0.4467   -1.9660   -1.4522 H   0  0  0  0  0  0  0  0  0  0  0  0
    2.1754   -1.2663   -0.2820 C   0  0  2  0  0  0  0  0  0  0  0  0
    2.8352   -1.9645   -0.7971 H   0  0  0  0  0  0  0  0  0  0  0  0
    2.2779   -1.4110    1.2643 C   0  0  1  0  0  0  0  0  0  0  0  0
    3.2985   -1.5826    1.6063 H   0  0  0  0  0  0  0  0  0  0  0  0
    1.6395   -0.1618    1.8653 C   0  0  2  0  0  0  0  0  0  0  0  0
    1.4896   -0.3644    3.3926 C   0  0  0  0  0  0  0  0  0  0  0  0
    0.1104   -1.0610    3.5342 C   0  0  2  0  0  0  0  0  0  0  0  0
    0.0767   -2.0829    3.9122 H   0  0  0  0  0  0  0  0  0  0  0  0
   -0.7410   -0.5605    2.3607 C   0  0  1  0  0  0  0  0  0  0  0  0
   -0.9998   -0.1657    3.7194 O   0  0  0  0  0  0  0  0  0  0  0  0
   -1.6764   -1.3691    1.5002 C   0  0  0  0  0  0  0  0  0  0  0  0
   -2.4591   -2.1987    1.8988 O   0  0  0  0  0  0  0  0  0  0  0  0
   -1.5130   -1.0176    0.2420 O   0  0  0  0  0  0  0  0  0  0  0  0
    2.4664    0.9749    1.6080 O   0  0  0  0  0  0  0  0  0  0  0  0
    1.3582   -2.5864    1.5485 C   0  0  0  0  0  0  0  0  0  0  0  0
    1.3765   -3.2669    2.5467 O   0  0  0  0  0  0  0  0  0  0  0  0
    0.5110   -2.7510    0.5030 O   0  0  0  0  0  0  0  0  0  0  0  0
    2.4214    0.1743   -0.7347 C   0  0  0  0  0  0  0  0  0  0  0  0
    3.9056    0.5116   -0.5784 C   0  0  0  0  0  0  0  0  0  0  0  0
    2.0163    0.3239   -2.2025 C   0  0  0  0  0  0  0  0  0  0  0  0
    1.6435    1.0651    0.0673 O   0  0  0  0  0  0  0  0  0  0  0  0
    0.9209    2.1396    1.2081 H   0  0  0  0  0  0  0  0  0  0  0  0
   -0.6896    1.8526    0.5065 H   0  0  0  0  0  0  0  0  0  0  0  0
   -0.4881    1.9219    2.2737 H   0  0  0  0  0  0  0  0  0  0  0  0
    2.2841   -1.0056    3.7742 H   0  0  0  0  0  0  0  0  0  0  0  0
    1.4891    0.5957    3.9086 H   0  0  0  0  0  0  0  0  0  0  0  0
    3.3217    0.9491    2.0585 H   0  0  0  0  0  0  0  0  0  0  0  0
    4.4990   -0.1679   -1.1901 H   0  0  0  0  0  0  0  0  0  0  0  0
    4.0809    1.5379   -0.9009 H   0  0  0  0  0  0  0  0  0  0  0  0
    4.1942    0.4050    0.4673 H   0  0  0  0  0  0  0  0  0  0  0  0
    0.9807    0.0079   -2.3276 H   0  0  0  0  0  0  0  0  0  0  0  0
    2.1168    1.3670   -2.5027 H   0  0  0  0  0  0  0  0  0  0  0  0
    2.6630   -0.2965   -2.8230 H   0  0  0  0  0  0  0  0  0  0  0  0
    0.7192    1.1365   -0.2078 H   0  0  0  0  0  0  0  0  0  0  0  0
  1 28  1  0  0  0  0
  1 29  1  0  0  0  0
  1 30  1  0  0  0  0
  2  1  1  6  0  0  0
  2 11  1  0  0  0  0
  2 15  1  0  0  0  0
  2  3  1  0  0  0  0
  3  4  1  6  0  0  0
  3 19  1  0  0  0  0
  3  5  1  0  0  0  0
  5  6  1  6  0  0  0
  5 23  1  0  0  0  0
  5  7  1  0  0  0  0
  7  8  1  6  0  0  0
  7  9  1  0  0  0  0
  7 24  1  0  0  0  0
  9 10  1  1  0  0  0
  9 11  1  0  0  0  0
  9 21  1  0  0  0  0
 11 12  1  0  0  0  0
 11 20  1  6  0  0  0
 12 13  1  0  0  0  0
 12 31  1  0  0  0  0
 12 32  1  0  0  0  0
 13 14  1  1  0  0  0
 13 16  1  0  0  0  0
 13 15  1  0  0  0  0
 15 16  1  1  0  0  0
 15 17  1  0  0  0  0
 17 18  2  0  0  0  0
 17 19  1  0  0  0  0
 20 33  1  0  0  0  0
 21 22  2  0  0  0  0
 21 23  1  0  0  0  0
 24 25  1  0  0  0  0
 24 26  1  0  0  0  0
 24 27  1  0  0  0  0
 25 34  1  0  0  0  0
 25 35  1  0  0  0  0
 25 36  1  0  0  0  0
 26 37  1  0  0  0  0
 26 38  1  0  0  0  0
 26 39  1  0  0  0  0
 27 40  1  0  0  0  0
M  END
>  <cansmi>
O=C1O[C@@H]2[C@H]([C@H]1[C@]1(O)C[C@@H]3[C@]4([C@@]1([C@@H]2OC4=O)C)O3)C(O)(C)C

>  <HBA2>
7

>  <HBD>
2

>  <logP>
-0.8672

>  <TPSA>
105.59

>  <MW>
310.299

$$$$
ZINC00489007
 OpenBabel02121623173D

 43 46  0  0  1  0  0  0  0  0999 V2000
   -0.0187    1.5264    0.0104 C   0  0  0  0  0  0  0  0  0  0  0  0
    1.4181    2.0424   -0.0005 C   0  0  0  0  0  0  0  0  0  0  0  0
    2.1115    1.6489   -1.3077 C   0  0  1  0  0  0  0  0  0  0  0  0
    1.6876    2.2583   -2.1058 H   0  0  0  0  0  0  0  0  0  0  0  0
    3.5914    1.9800   -1.2057 C   0  0  2  0  0  0  0  0  0  0  0  0
    3.7075    2.3412   -0.1839 H   0  0  0  0  0  0  0  0  0  0  0  0
    3.8524    3.2127   -2.0532 C   0  0  0  0  0  0  0  0  0  0  0  0
    5.3333    3.5462   -2.1752 C   0  0  0  0  0  0  0  0  0  0  0  0
    6.0338    2.2869   -2.7078 C   0  0  0  0  0  0  0  0  0  0  0  0
    5.9219    1.2647   -1.6879 N   0  3  1  0  0  0  0  0  0  0  0  0
    4.5901    0.8680   -1.3224 C   0  0  2  0  0  0  0  0  0  0  0  0
    4.7332    0.5861   -0.2792 H   0  0  0  0  0  0  0  0  0  0  0  0
    4.1137   -0.4246   -1.9089 C   0  0  2  0  0  0  0  0  0  0  0  0
    3.8306   -0.9842   -1.0175 H   0  0  0  0  0  0  0  0  0  0  0  0
    5.0840   -1.3628   -2.5628 C   0  0  0  0  0  0  0  0  0  0  0  0
    6.3370   -0.6630   -3.0817 C   0  0  0  0  0  0  0  0  0  0  0  0
    6.8740    0.1854   -1.8761 C   0  0  0  0  0  0  0  0  0  0  0  0
    2.7843   -0.3431   -2.6390 C   0  0  0  0  0  0  0  0  0  0  0  0
    1.8682    0.2562   -1.6341 N   0  0  0  0  0  0  0  0  0  0  0  0
    0.8887   -0.4904   -1.1188 C   0  0  0  0  0  0  0  0  0  0  0  0
    0.6860   -1.5903   -1.5881 O   0  0  0  0  0  0  0  0  0  0  0  0
    0.0021   -0.0041    0.0020 C   0  0  0  0  0  0  0  0  0  0  0  0
   -0.5263    1.8794    0.9081 H   0  0  0  0  0  0  0  0  0  0  0  0
   -0.5433    1.8890   -0.8735 H   0  0  0  0  0  0  0  0  0  0  0  0
    1.4125    3.1284    0.0926 H   0  0  0  0  0  0  0  0  0  0  0  0
    1.9625    1.6129    0.8405 H   0  0  0  0  0  0  0  0  0  0  0  0
    3.4469    3.0452   -3.0509 H   0  0  0  0  0  0  0  0  0  0  0  0
    3.3370    4.0623   -1.6052 H   0  0  0  0  0  0  0  0  0  0  0  0
    5.4723    4.3723   -2.8726 H   0  0  0  0  0  0  0  0  0  0  0  0
    5.7367    3.8112   -1.1979 H   0  0  0  0  0  0  0  0  0  0  0  0
    5.5470    1.9514   -3.6235 H   0  0  0  0  0  0  0  0  0  0  0  0
    7.0844    2.5020   -2.9030 H   0  0  0  0  0  0  0  0  0  0  0  0
    5.3807   -2.1211   -1.8383 H   0  0  0  0  0  0  0  0  0  0  0  0
    4.5864   -1.8554   -3.3982 H   0  0  0  0  0  0  0  0  0  0  0  0
    7.0859   -1.4025   -3.3648 H   0  0  0  0  0  0  0  0  0  0  0  0
    6.0863   -0.0387   -3.9393 H   0  0  0  0  0  0  0  0  0  0  0  0
    7.8489    0.5945   -2.1412 H   0  0  0  0  0  0  0  0  0  0  0  0
    6.9546   -0.4003   -0.9604 H   0  0  0  0  0  0  0  0  0  0  0  0
    2.8737    0.2914   -3.5208 H   0  0  0  0  0  0  0  0  0  0  0  0
    2.4434   -1.3397   -2.9194 H   0  0  0  0  0  0  0  0  0  0  0  0
    0.4122   -0.3684    0.9439 H   0  0  0  0  0  0  0  0  0  0  0  0
   -1.0124   -0.3818   -0.1259 H   0  0  0  0  0  0  0  0  0  0  0  0
    6.2624    1.7282   -0.8589 H   0  0  0  0  0  0  0  0  0  0  0  0
  1 22  1  0  0  0  0
  1  2  1  0  0  0  0
  1 23  1  0  0  0  0
  1 24  1  0  0  0  0
  2  3  1  0  0  0  0
  2 25  1  0  0  0  0
  2 26  1  0  0  0  0
  3  4  1  6  0  0  0
  3 19  1  0  0  0  0
  3  5  1  0  0  0  0
  5  6  1  1  0  0  0
  5 11  1  0  0  0  0
  5  7  1  0  0  0  0
  7  8  1  0  0  0  0
  7 27  1  0  0  0  0
  7 28  1  0  0  0  0
  8  9  1  0  0  0  0
  8 29  1  0  0  0  0
  8 30  1  0  0  0  0
  9 10  1  0  0  0  0
  9 31  1  0  0  0  0
  9 32  1  0  0  0  0
 10 17  1  0  0  0  0
 10 11  1  0  0  0  0
 10 43  1  1  0  0  0
 11 12  1  1  0  0  0
 11 13  1  0  0  0  0
 13 14  1  1  0  0  0
 13 15  1  0  0  0  0
 13 18  1  0  0  0  0
 15 16  1  0  0  0  0
 15 33  1  0  0  0  0
 15 34  1  0  0  0  0
 16 17  1  0  0  0  0
 16 35  1  0  0  0  0
 16 36  1  0  0  0  0
 17 37  1  0  0  0  0
 17 38  1  0  0  0  0
 18 19  1  0  0  0  0
 18 39  1  0  0  0  0
 18 40  1  0  0  0  0
 19 20  1  0  0  0  0
 20 21  2  0  0  0  0
 20 22  1  0  0  0  0
 22 41  1  0  0  0  0
 22 42  1  0  0  0  0
M  CHG  1  10   1
M  END
>  <cansmi>
O=C1CCC[C@@H]2N1C[C@H]1CCC[N@@H+]3[C@H]1[C@H]2CCC3

>  <HBA2>
2

>  <HBD>
1

>  <logP>
1.9617

>  <TPSA>
24.75

>  <MW>
249.372

$$$$
ZINC08681639
 OpenBabel02121623173D

 88 92  0  0  1  0  0  0  0  0999 V2000
    3.4837    1.9257    5.7996 C   0  0  0  0  0  0  0  0  0  0  0  0
    2.4580    2.3026    6.8705 C   0  0  1  0  0  0  0  0  0  0  0  0
    2.0675    1.3970    7.3346 H   0  0  0  0  0  0  0  0  0  0  0  0
    3.1285    3.1739    7.9358 C   0  0  2  0  0  0  0  0  0  0  0  0
    2.4088    3.4092    8.7199 H   0  0  0  0  0  0  0  0  0  0  0  0
    3.6212    4.4712    7.2872 C   0  0  1  0  0  0  0  0  0  0  0  0
    4.3786    4.2397    6.5383 H   0  0  0  0  0  0  0  0  0  0  0  0
    2.4370    5.1772    6.6198 C   0  0  1  0  0  0  0  0  0  0  0  0
    2.7883    6.0734    6.1085 H   0  0  0  0  0  0  0  0  0  0  0  0
    1.7932    4.2286    5.6053 C   0  0  1  0  0  0  0  0  0  0  0  0
    2.5151    3.9853    4.8258 H   0  0  0  0  0  0  0  0  0  0  0  0
    1.3855    3.0299    6.2681 O   0  0  0  0  0  0  0  0  0  0  0  0
    0.6533    4.8602    5.0189 O   0  0  0  0  0  0  0  0  0  0  0  0
    0.0231    4.1897    4.0162 C   0  0  0  0  0  0  0  0  0  0  0  0
   -1.0839    3.3496    4.3029 C   0  0  0  0  0  0  0  0  0  0  0  0
   -1.4942    3.2085    5.4439 O   0  0  0  0  0  0  0  0  0  0  0  0
   -1.7176    2.6545    3.1712 C   0  0  0  0  0  0  0  0  0  0  0  0
   -2.8162    1.8059    3.3623 C   0  0  0  0  0  0  0  0  0  0  0  0
   -3.3838    1.1715    2.2734 C   0  0  0  0  0  0  0  0  0  0  0  0
   -2.8701    1.3790    0.9975 C   0  0  0  0  0  0  0  0  0  0  0  0
   -1.7805    2.2127    0.8015 C   0  0  0  0  0  0  0  0  0  0  0  0
   -1.1974    2.8585    1.8813 C   0  0  0  0  0  0  0  0  0  0  0  0
   -0.1397    3.6780    1.7056 O   0  0  0  0  0  0  0  0  0  0  0  0
    0.4502    4.3195    2.7289 C   0  0  0  0  0  0  0  0  0  0  0  0
    1.6018    5.1964    2.4478 C   0  0  0  0  0  0  0  0  0  0  0  0
    1.6275    6.5016    2.9477 C   0  0  0  0  0  0  0  0  0  0  0  0
    2.7074    7.3159    2.6863 C   0  0  0  0  0  0  0  0  0  0  0  0
    3.7655    6.8450    1.9185 C   0  0  0  0  0  0  0  0  0  0  0  0
    3.7420    5.5499    1.4155 C   0  0  0  0  0  0  0  0  0  0  0  0
    2.6685    4.7270    1.6759 C   0  0  0  0  0  0  0  0  0  0  0  0
    4.8254    7.6530    1.6586 O   0  0  0  0  0  0  0  0  0  0  0  0
    4.7851    8.9723    2.2062 C   0  0  0  0  0  0  0  0  0  0  0  0
   -1.2329    2.4224   -0.5867 C   0  0  0  0  0  0  0  0  0  0  0  0
   -0.0816    1.4786   -0.8204 C   0  0  0  0  0  0  0  0  0  0  0  0
   -0.1189    0.6353   -1.8222 C   0  0  0  0  0  0  0  0  0  0  0  0
    1.0649   -0.2538   -2.1032 C   0  0  0  0  0  0  0  0  0  0  0  0
   -1.3457    0.5544   -2.6938 C   0  0  0  0  0  0  0  0  0  0  0  0
   -3.4388    0.7552   -0.0657 O   0  0  0  0  0  0  0  0  0  0  0  0
   -4.5588   -0.0911    0.2016 C   0  0  2  0  0  0  0  0  0  0  0  0
   -4.3110   -0.7769    1.0118 H   0  0  0  0  0  0  0  0  0  0  0  0
   -4.9059   -0.8912   -1.0566 C   0  0  1  0  0  0  0  0  0  0  0  0
   -4.0673   -1.5349   -1.3219 H   0  0  0  0  0  0  0  0  0  0  0  0
   -6.1435   -1.7506   -0.7805 C   0  0  1  0  0  0  0  0  0  0  0  0
   -5.9206   -2.4708    0.0068 H   0  0  0  0  0  0  0  0  0  0  0  0
   -7.2930   -0.8422   -0.3337 C   0  0  1  0  0  0  0  0  0  0  0  0
   -8.1615   -1.4509   -0.0819 H   0  0  0  0  0  0  0  0  0  0  0  0
   -6.8537   -0.0441    0.8966 C   0  0  1  0  0  0  0  0  0  0  0  0
   -6.6360   -0.7294    1.7158 H   0  0  0  0  0  0  0  0  0  0  0  0
   -5.6808    0.7086    0.5806 O   0  0  0  0  0  0  0  0  0  0  0  0
   -7.9751    0.9097    1.3135 C   0  0  0  0  0  0  0  0  0  0  0  0
   -7.6116    1.5706    2.5273 O   0  0  0  0  0  0  0  0  0  0  0  0
   -7.6309    0.0577   -1.3911 O   0  0  0  0  0  0  0  0  0  0  0  0
   -6.5185   -2.4453   -1.9717 O   0  0  0  0  0  0  0  0  0  0  0  0
   -5.1792    0.0074   -2.1336 O   0  0  0  0  0  0  0  0  0  0  0  0
   -3.3187    1.6080    4.6074 O   0  0  0  0  0  0  0  0  0  0  0  0
    1.4751    5.5387    7.6129 O   0  0  0  0  0  0  0  0  0  0  0  0
    4.1831    5.3226    8.2880 O   0  0  0  0  0  0  0  0  0  0  0  0
    4.2366    2.4700    8.5003 O   0  0  0  0  0  0  0  0  0  0  0  0
    3.8744    2.8314    5.3359 H   0  0  0  0  0  0  0  0  0  0  0  0
    4.3017    1.3709    6.2593 H   0  0  0  0  0  0  0  0  0  0  0  0
    3.0057    1.3061    5.0408 H   0  0  0  0  0  0  0  0  0  0  0  0
   -4.2308    0.5161    2.4131 H   0  0  0  0  0  0  0  0  0  0  0  0
    0.8035    6.8699    3.5408 H   0  0  0  0  0  0  0  0  0  0  0  0
    2.7296    8.3233    3.0749 H   0  0  0  0  0  0  0  0  0  0  0  0
    4.5666    5.1881    0.8193 H   0  0  0  0  0  0  0  0  0  0  0  0
    2.6508    3.7208    1.2840 H   0  0  0  0  0  0  0  0  0  0  0  0
    5.6898    9.5107    1.9240 H   0  0  0  0  0  0  0  0  0  0  0  0
    3.9130    9.4997    1.8196 H   0  0  0  0  0  0  0  0  0  0  0  0
    4.7216    8.9129    3.2927 H   0  0  0  0  0  0  0  0  0  0  0  0
   -0.8863    3.4507   -0.6890 H   0  0  0  0  0  0  0  0  0  0  0  0
   -2.0163    2.2284   -1.3194 H   0  0  0  0  0  0  0  0  0  0  0  0
    0.7723    1.4943   -0.1594 H   0  0  0  0  0  0  0  0  0  0  0  0
    1.2599   -0.8842   -1.2356 H   0  0  0  0  0  0  0  0  0  0  0  0
    0.8505   -0.8820   -2.9678 H   0  0  0  0  0  0  0  0  0  0  0  0
    1.9407    0.3615   -2.3094 H   0  0  0  0  0  0  0  0  0  0  0  0
   -1.2930    1.3206   -3.4672 H   0  0  0  0  0  0  0  0  0  0  0  0
   -1.3960   -0.4296   -3.1599 H   0  0  0  0  0  0  0  0  0  0  0  0
   -2.2353    0.7137   -2.0845 H   0  0  0  0  0  0  0  0  0  0  0  0
   -8.1323    1.6504    0.5295 H   0  0  0  0  0  0  0  0  0  0  0  0
   -8.8939    0.3443    1.4687 H   0  0  0  0  0  0  0  0  0  0  0  0
   -8.2778    2.1921    2.8514 H   0  0  0  0  0  0  0  0  0  0  0  0
   -7.9188   -0.3806   -2.2036 H   0  0  0  0  0  0  0  0  0  0  0  0
   -5.8359   -3.0400   -2.3116 H   0  0  0  0  0  0  0  0  0  0  0  0
   -4.4388    0.5869   -2.3598 H   0  0  0  0  0  0  0  0  0  0  0  0
   -4.0122    2.2345    4.8557 H   0  0  0  0  0  0  0  0  0  0  0  0
    0.6944    5.9867    7.2596 H   0  0  0  0  0  0  0  0  0  0  0  0
    4.5160    6.1640    7.9469 H   0  0  0  0  0  0  0  0  0  0  0  0
    3.9971    1.6348    8.9248 H   0  0  0  0  0  0  0  0  0  0  0  0
  1  2  1  0  0  0  0
  1 59  1  0  0  0  0
  1 60  1  0  0  0  0
  1 61  1  0  0  0  0
  2  3  1  1  0  0  0
  2 12  1  0  0  0  0
  2  4  1  0  0  0  0
  4  5  1  1  0  0  0
  4  6  1  0  0  0  0
  4 58  1  0  0  0  0
  6  7  1  6  0  0  0
  6  8  1  0  0  0  0
  6 57  1  0  0  0  0
  8  9  1  6  0  0  0
  8 10  1  0  0  0  0
  8 56  1  0  0  0  0
 10 11  1  6  0  0  0
 10 12  1  0  0  0  0
 10 13  1  0  0  0  0
 13 14  1  0  0  0  0
 14 24  2  0  0  0  0
 14 15  1  0  0  0  0
 15 16  2  0  0  0  0
 15 17  1  0  0  0  0
 17 22  2  0  0  0  0
 17 18  1  0  0  0  0
 18 19  2  0  0  0  0
 18 55  1  0  0  0  0
 19 20  1  0  0  0  0
 19 62  1  0  0  0  0
 20 21  2  0  0  0  0
 20 38  1  0  0  0  0
 21 22  1  0  0  0  0
 21 33  1  0  0  0  0
 22 23  1  0  0  0  0
 23 24  1  0  0  0  0
 24 25  1  0  0  0  0
 25 30  2  0  0  0  0
 25 26  1  0  0  0  0
 26 27  2  0  0  0  0
 26 63  1  0  0  0  0
 27 28  1  0  0  0  0
 27 64  1  0  0  0  0
 28 29  2  0  0  0  0
 28 31  1  0  0  0  0
 29 30  1  0  0  0  0
 29 65  1  0  0  0  0
 30 66  1  0  0  0  0
 31 32  1  0  0  0  0
 32 67  1  0  0  0  0
 32 68  1  0  0  0  0
 32 69  1  0  0  0  0
 33 34  1  0  0  0  0
 33 70  1  0  0  0  0
 33 71  1  0  0  0  0
 34 35  2  0  0  0  0
 34 72  1  0  0  0  0
 35 36  1  0  0  0  0
 35 37  1  0  0  0  0
 36 73  1  0  0  0  0
 36 74  1  0  0  0  0
 36 75  1  0  0  0  0
 37 76  1  0  0  0  0
 37 77  1  0  0  0  0
 37 78  1  0  0  0  0
 38 39  1  0  0  0  0
 39 40  1  1  0  0  0
 39 49  1  0  0  0  0
 39 41  1  0  0  0  0
 41 42  1  6  0  0  0
 41 43  1  0  0  0  0
 41 54  1  0  0  0  0
 43 44  1  1  0  0  0
 43 45  1  0  0  0  0
 43 53  1  0  0  0  0
 45 46  1  1  0  0  0
 45 47  1  0  0  0  0
 45 52  1  0  0  0  0
 47 48  1  1  0  0  0
 47 49  1  0  0  0  0
 47 50  1  0  0  0  0
 50 51  1  0  0  0  0
 50 79  1  0  0  0  0
 50 80  1  0  0  0  0
 51 81  1  0  0  0  0
 52 82  1  0  0  0  0
 53 83  1  0  0  0  0
 54 84  1  0  0  0  0
 55 85  1  0  0  0  0
 56 86  1  0  0  0  0
 57 87  1  0  0  0  0
 58 88  1  0  0  0  0
M  END
>  <cansmi>
COc1ccc(cc1)c1oc2c(CC=C(C)C)c(O[C@H]3O[C@@H](CO)[C@H]([C@H]([C@H]3O)O)O)cc(c2c(=O)c1O[C@@H]1O[C@@H](C)[C@H]([C@@H]([C@@H]1O)O)O)O

>  <HBA2>
15

>  <HBD>
8

>  <logP>
0.0679

>  <TPSA>
238.2

>  <MW>
676.662

$$$$
ZINC36046319
 OpenBabel02121623173D

 49 52  0  0  1  0  0  0  0  0999 V2000
   -0.0167    1.3795    0.0096 C   0  0  0  0  0  0  0  0  0  0  0  0
    1.1683    2.0940    0.0021 C   0  0  0  0  0  0  0  0  0  0  0  0
    2.3774    1.4303   -0.0130 C   0  0  0  0  0  0  0  0  0  0  0  0
    2.4038    0.0341   -0.0208 C   0  0  0  0  0  0  0  0  0  0  0  0
    1.2040   -0.6806   -0.0131 C   0  0  0  0  0  0  0  0  0  0  0  0
    0.0021   -0.0041    0.0020 C   0  0  0  0  0  0  0  0  0  0  0  0
    3.6945   -0.6834   -0.0374 C   0  0  0  0  0  0  0  0  0  0  0  0
    3.6864   -2.0423   -0.0503 C   0  0  0  0  0  0  0  0  0  0  0  0
    4.9141   -2.7479   -0.0669 C   0  0  0  0  0  0  0  0  0  0  0  0
    4.9443   -3.9678   -0.0790 O   0  0  0  0  0  0  0  0  0  0  0  0
    6.1530   -1.9519   -0.0693 C   0  0  0  0  0  0  0  0  0  0  0  0
    6.0489   -0.5496   -0.0552 C   0  0  0  0  0  0  0  0  0  0  0  0
    4.8301    0.0318   -0.0449 O   0  0  0  0  0  0  0  0  0  0  0  0
    7.2014    0.2203   -0.0572 C   0  0  0  0  0  0  0  0  0  0  0  0
    8.4452   -0.3910   -0.0736 C   0  0  0  0  0  0  0  0  0  0  0  0
    8.5528   -1.7804   -0.0881 C   0  0  0  0  0  0  0  0  0  0  0  0
    7.4110   -2.5656   -0.0858 C   0  0  0  0  0  0  0  0  0  0  0  0
    7.5117   -3.9201   -0.0990 O   0  0  0  0  0  0  0  0  0  0  0  0
    9.7814   -2.3670   -0.1045 O   0  0  0  0  0  0  0  0  0  0  0  0
    9.5696    0.3710   -0.0759 O   0  0  0  0  0  0  0  0  0  0  0  0
    9.3924    1.7889   -0.0610 C   0  0  2  0  0  0  0  0  0  0  0  0
    8.6852    2.0751   -0.8395 H   0  0  0  0  0  0  0  0  0  0  0  0
   10.7373    2.4743   -0.3160 C   0  0  2  0  0  0  0  0  0  0  0  0
   11.4568    2.1569    0.4388 H   0  0  0  0  0  0  0  0  0  0  0  0
   10.5506    3.9927   -0.2388 C   0  0  1  0  0  0  0  0  0  0  0  0
    9.8692    4.3167   -1.0254 H   0  0  0  0  0  0  0  0  0  0  0  0
    9.9636    4.3550    1.1289 C   0  0  1  0  0  0  0  0  0  0  0  0
    9.7758    5.4278    1.1721 H   0  0  0  0  0  0  0  0  0  0  0  0
    8.6485    3.5970    1.3281 C   0  0  1  0  0  0  0  0  0  0  0  0
    7.9315    3.9069    0.5678 H   0  0  0  0  0  0  0  0  0  0  0  0
    8.8873    2.1927    1.2134 O   0  0  0  0  0  0  0  0  0  0  0  0
    8.0944    3.9027    2.6958 C   0  0  0  0  0  0  0  0  0  0  0  0
    7.7359    5.0355    2.9690 O   0  0  0  0  0  0  0  0  0  0  0  0
    8.0047    3.0172    3.5290 O   0  5  0  0  0  0  0  0  0  0  0  0
   10.8869    3.9900    2.1566 O   0  0  0  0  0  0  0  0  0  0  0  0
   11.8143    4.6388   -0.4049 O   0  0  0  0  0  0  0  0  0  0  0  0
   11.2173    2.1163   -1.6135 O   0  0  0  0  0  0  0  0  0  0  0  0
   -0.9606    1.9042    0.0260 H   0  0  0  0  0  0  0  0  0  0  0  0
    1.1464    3.1737    0.0078 H   0  0  0  0  0  0  0  0  0  0  0  0
    3.3016    1.9892   -0.0192 H   0  0  0  0  0  0  0  0  0  0  0  0
    1.2173   -1.7605   -0.0194 H   0  0  0  0  0  0  0  0  0  0  0  0
   -0.9265   -0.5555    0.0079 H   0  0  0  0  0  0  0  0  0  0  0  0
    2.7501   -2.5805   -0.0475 H   0  0  0  0  0  0  0  0  0  0  0  0
    7.1302    1.2979   -0.0464 H   0  0  0  0  0  0  0  0  0  0  0  0
    7.5333   -4.3043   -0.9861 H   0  0  0  0  0  0  0  0  0  0  0  0
   10.1439   -2.5451    0.7741 H   0  0  0  0  0  0  0  0  0  0  0  0
   10.5795    4.1913    3.0511 H   0  0  0  0  0  0  0  0  0  0  0  0
   11.7705    5.6041   -0.3669 H   0  0  0  0  0  0  0  0  0  0  0  0
   11.3541    1.1667   -1.7341 H   0  0  0  0  0  0  0  0  0  0  0  0
  1  6  2  0  0  0  0
  1  2  1  0  0  0  0
  1 38  1  0  0  0  0
  2  3  2  0  0  0  0
  2 39  1  0  0  0  0
  3  4  1  0  0  0  0
  3 40  1  0  0  0  0
  4  5  2  0  0  0  0
  4  7  1  0  0  0  0
  5  6  1  0  0  0  0
  5 41  1  0  0  0  0
  6 42  1  0  0  0  0
  7 13  1  0  0  0  0
  7  8  2  0  0  0  0
  8  9  1  0  0  0  0
  8 43  1  0  0  0  0
  9 10  2  0  0  0  0
  9 11  1  0  0  0  0
 11 17  2  0  0  0  0
 11 12  1  0  0  0  0
 12 13  1  0  0  0  0
 12 14  2  0  0  0  0
 14 15  1  0  0  0  0
 14 44  1  0  0  0  0
 15 16  2  0  0  0  0
 15 20  1  0  0  0  0
 16 17  1  0  0  0  0
 16 19  1  0  0  0  0
 17 18  1  0  0  0  0
 18 45  1  0  0  0  0
 19 46  1  0  0  0  0
 20 21  1  0  0  0  0
 21 22  1  6  0  0  0
 21 31  1  0  0  0  0
 21 23  1  0  0  0  0
 23 24  1  1  0  0  0
 23 25  1  0  0  0  0
 23 37  1  0  0  0  0
 25 26  1  6  0  0  0
 25 27  1  0  0  0  0
 25 36  1  0  0  0  0
 27 28  1  1  0  0  0
 27 29  1  0  0  0  0
 27 35  1  0  0  0  0
 29 30  1  6  0  0  0
 29 31  1  0  0  0  0
 29 32  1  0  0  0  0
 32 33  2  0  0  0  0
 32 34  1  0  0  0  0
 35 47  1  0  0  0  0
 36 48  1  0  0  0  0
 37 49  1  0  0  0  0
M  CHG  1  34  -1
M  END
>  <cansmi>
[O-]C(=O)[C@@H]1O[C@H](Oc2cc3oc(cc(=O)c3c(c2O)O)c2ccccc2)[C@H]([C@@H]([C@@H]1O)O)O

>  <HBA2>
11

>  <HBD>
5

>  <logP>
-1.1925

>  <TPSA>
189.95

>  <MW>
445.353

$$$$
ZINC36046318
 OpenBabel02121623173D

 49 52  0  0  1  0  0  0  0  0999 V2000
   -0.0167    1.3795    0.0096 C   0  0  0  0  0  0  0  0  0  0  0  0
    1.1683    2.0940    0.0021 C   0  0  0  0  0  0  0  0  0  0  0  0
    2.3774    1.4303   -0.0130 C   0  0  0  0  0  0  0  0  0  0  0  0
    2.4038    0.0341   -0.0208 C   0  0  0  0  0  0  0  0  0  0  0  0
    1.2040   -0.6806   -0.0131 C   0  0  0  0  0  0  0  0  0  0  0  0
    0.0021   -0.0041    0.0020 C   0  0  0  0  0  0  0  0  0  0  0  0
    3.6945   -0.6834   -0.0374 C   0  0  0  0  0  0  0  0  0  0  0  0
    3.6864   -2.0423   -0.0503 C   0  0  0  0  0  0  0  0  0  0  0  0
    4.9141   -2.7479   -0.0669 C   0  0  0  0  0  0  0  0  0  0  0  0
    4.9443   -3.9678   -0.0790 O   0  0  0  0  0  0  0  0  0  0  0  0
    6.1530   -1.9519   -0.0693 C   0  0  0  0  0  0  0  0  0  0  0  0
    6.0489   -0.5496   -0.0552 C   0  0  0  0  0  0  0  0  0  0  0  0
    4.8301    0.0318   -0.0449 O   0  0  0  0  0  0  0  0  0  0  0  0
    7.2014    0.2203   -0.0572 C   0  0  0  0  0  0  0  0  0  0  0  0
    8.4452   -0.3910   -0.0736 C   0  0  0  0  0  0  0  0  0  0  0  0
    8.5528   -1.7804   -0.0881 C   0  0  0  0  0  0  0  0  0  0  0  0
    7.4110   -2.5656   -0.0858 C   0  0  0  0  0  0  0  0  0  0  0  0
    7.5117   -3.9201   -0.0990 O   0  0  0  0  0  0  0  0  0  0  0  0
    9.7814   -2.3670   -0.1045 O   0  0  0  0  0  0  0  0  0  0  0  0
    9.5696    0.3710   -0.0759 O   0  0  0  0  0  0  0  0  0  0  0  0
    9.3924    1.7889   -0.0610 C   0  0  2  0  0  0  0  0  0  0  0  0
    8.6852    2.0751   -0.8395 H   0  0  0  0  0  0  0  0  0  0  0  0
   10.7373    2.4743   -0.3160 C   0  0  1  0  0  0  0  0  0  0  0  0
   11.1029    2.2022   -1.3062 H   0  0  0  0  0  0  0  0  0  0  0  0
   10.5506    3.9927   -0.2388 C   0  0  1  0  0  0  0  0  0  0  0  0
    9.8692    4.3167   -1.0254 H   0  0  0  0  0  0  0  0  0  0  0  0
    9.9636    4.3550    1.1289 C   0  0  1  0  0  0  0  0  0  0  0  0
    9.7758    5.4278    1.1721 H   0  0  0  0  0  0  0  0  0  0  0  0
    8.6485    3.5970    1.3281 C   0  0  1  0  0  0  0  0  0  0  0  0
    7.9315    3.9069    0.5678 H   0  0  0  0  0  0  0  0  0  0  0  0
    8.8873    2.1927    1.2134 O   0  0  0  0  0  0  0  0  0  0  0  0
    8.0944    3.9027    2.6958 C   0  0  0  0  0  0  0  0  0  0  0  0
    7.7359    5.0355    2.9690 O   0  0  0  0  0  0  0  0  0  0  0  0
    8.0047    3.0172    3.5290 O   0  5  0  0  0  0  0  0  0  0  0  0
   10.8869    3.9900    2.1566 O   0  0  0  0  0  0  0  0  0  0  0  0
   11.8143    4.6388   -0.4049 O   0  0  0  0  0  0  0  0  0  0  0  0
   11.6810    2.0571    0.6727 O   0  0  0  0  0  0  0  0  0  0  0  0
   -0.9606    1.9042    0.0260 H   0  0  0  0  0  0  0  0  0  0  0  0
    1.1464    3.1737    0.0078 H   0  0  0  0  0  0  0  0  0  0  0  0
    3.3016    1.9892   -0.0192 H   0  0  0  0  0  0  0  0  0  0  0  0
    1.2173   -1.7605   -0.0194 H   0  0  0  0  0  0  0  0  0  0  0  0
   -0.9265   -0.5555    0.0079 H   0  0  0  0  0  0  0  0  0  0  0  0
    2.7501   -2.5805   -0.0475 H   0  0  0  0  0  0  0  0  0  0  0  0
    7.1302    1.2979   -0.0464 H   0  0  0  0  0  0  0  0  0  0  0  0
    7.5333   -4.3043   -0.9861 H   0  0  0  0  0  0  0  0  0  0  0  0
   10.1439   -2.5451    0.7741 H   0  0  0  0  0  0  0  0  0  0  0  0
   10.5795    4.1913    3.0511 H   0  0  0  0  0  0  0  0  0  0  0  0
   11.7705    5.6041   -0.3669 H   0  0  0  0  0  0  0  0  0  0  0  0
   11.8443    1.1041    0.6831 H   0  0  0  0  0  0  0  0  0  0  0  0
  1  6  2  0  0  0  0
  1  2  1  0  0  0  0
  1 38  1  0  0  0  0
  2  3  2  0  0  0  0
  2 39  1  0  0  0  0
  3  4  1  0  0  0  0
  3 40  1  0  0  0  0
  4  5  2  0  0  0  0
  4  7  1  0  0  0  0
  5  6  1  0  0  0  0
  5 41  1  0  0  0  0
  6 42  1  0  0  0  0
  7 13  1  0  0  0  0
  7  8  2  0  0  0  0
  8  9  1  0  0  0  0
  8 43  1  0  0  0  0
  9 10  2  0  0  0  0
  9 11  1  0  0  0  0
 11 17  2  0  0  0  0
 11 12  1  0  0  0  0
 12 13  1  0  0  0  0
 12 14  2  0  0  0  0
 14 15  1  0  0  0  0
 14 44  1  0  0  0  0
 15 16  2  0  0  0  0
 15 20  1  0  0  0  0
 16 17  1  0  0  0  0
 16 19  1  0  0  0  0
 17 18  1  0  0  0  0
 18 45  1  0  0  0  0
 19 46  1  0  0  0  0
 20 21  1  0  0  0  0
 21 22  1  6  0  0  0
 21 31  1  0  0  0  0
 21 23  1  0  0  0  0
 23 24  1  6  0  0  0
 23 25  1  0  0  0  0
 23 37  1  0  0  0  0
 25 26  1  6  0  0  0
 25 27  1  0  0  0  0
 25 36  1  0  0  0  0
 27 28  1  1  0  0  0
 27 29  1  0  0  0  0
 27 35  1  0  0  0  0
 29 30  1  6  0  0  0
 29 31  1  0  0  0  0
 29 32  1  0  0  0  0
 32 33  2  0  0  0  0
 32 34  1  0  0  0  0
 35 47  1  0  0  0  0
 36 48  1  0  0  0  0
 37 49  1  0  0  0  0
M  CHG  1  34  -1
M  END
>  <cansmi>
[O-]C(=O)[C@@H]1O[C@H](Oc2cc3oc(cc(=O)c3c(c2O)O)c2ccccc2)[C@@H]([C@@H]([C@@H]1O)O)O

>  <HBA2>
11

>  <HBD>
5

>  <logP>
-1.1925

>  <TPSA>
189.95

>  <MW>
445.353

$$$$
ZINC49639413
 OpenBabel02121623173D

 88 92  0  0  1  0  0  0  0  0999 V2000
    1.5526   -4.5514   -0.2141 C   0  0  0  0  0  0  0  0  0  0  0  0
    0.9953   -4.2854    1.1858 C   0  0  2  0  0  0  0  0  0  0  0  0
    1.4910   -4.9382    1.9044 H   0  0  0  0  0  0  0  0  0  0  0  0
   -0.5101   -4.5634    1.1973 C   0  0  1  0  0  0  0  0  0  0  0  0
   -0.6882   -5.6144    0.9701 H   0  0  0  0  0  0  0  0  0  0  0  0
   -1.0710   -4.2374    2.5849 C   0  0  1  0  0  0  0  0  0  0  0  0
   -0.6160   -4.8948    3.3258 H   0  0  0  0  0  0  0  0  0  0  0  0
   -0.7464   -2.7796    2.9252 C   0  0  1  0  0  0  0  0  0  0  0  0
   -1.0935   -2.5551    3.9338 H   0  0  0  0  0  0  0  0  0  0  0  0
    0.7682   -2.5706    2.8470 C   0  0  1  0  0  0  0  0  0  0  0  0
    1.2608   -3.2007    3.5875 H   0  0  0  0  0  0  0  0  0  0  0  0
    1.2295   -2.9211    1.5407 O   0  0  0  0  0  0  0  0  0  0  0  0
    1.0742   -1.1995    3.1087 O   0  0  0  0  0  0  0  0  0  0  0  0
    2.3851   -0.8830    3.2913 C   0  0  0  0  0  0  0  0  0  0  0  0
    3.0913   -1.3814    4.4166 C   0  0  0  0  0  0  0  0  0  0  0  0
    2.5465   -2.0988    5.2404 O   0  0  0  0  0  0  0  0  0  0  0  0
    4.5062   -1.0000    4.5515 C   0  0  0  0  0  0  0  0  0  0  0  0
    5.2794   -1.4471    5.6312 C   0  0  0  0  0  0  0  0  0  0  0  0
    6.6053   -1.0673    5.7224 C   0  0  0  0  0  0  0  0  0  0  0  0
    7.1658   -0.2470    4.7488 C   0  0  0  0  0  0  0  0  0  0  0  0
    6.4070    0.1994    3.6785 C   0  0  0  0  0  0  0  0  0  0  0  0
    5.0753   -0.1715    3.5688 C   0  0  0  0  0  0  0  0  0  0  0  0
    4.3237    0.2539    2.5318 O   0  0  0  0  0  0  0  0  0  0  0  0
    3.0318   -0.0895    2.3920 C   0  0  0  0  0  0  0  0  0  0  0  0
    2.2853    0.4156    1.2251 C   0  0  0  0  0  0  0  0  0  0  0  0
    2.8347    0.3139   -0.0563 C   0  0  0  0  0  0  0  0  0  0  0  0
    2.1334    0.7866   -1.1436 C   0  0  0  0  0  0  0  0  0  0  0  0
    0.8820    1.3644   -0.9681 C   0  0  0  0  0  0  0  0  0  0  0  0
    0.3319    1.4676    0.3038 C   0  0  0  0  0  0  0  0  0  0  0  0
    1.0234    0.9924    1.3962 C   0  0  0  0  0  0  0  0  0  0  0  0
    0.1946    1.8299   -2.0427 O   0  0  0  0  0  0  0  0  0  0  0  0
   -1.0860    2.4120   -1.7912 C   0  0  0  0  0  0  0  0  0  0  0  0
    7.0297    1.0880    2.6327 C   0  0  0  0  0  0  0  0  0  0  0  0
    7.5286    0.2438    1.4885 C   0  0  0  0  0  0  0  0  0  0  0  0
    7.0962    0.4674    0.2723 C   0  0  0  0  0  0  0  0  0  0  0  0
    6.1253    1.5902    0.0124 C   0  0  0  0  0  0  0  0  0  0  0  0
    7.5697   -0.3983   -0.8668 C   0  0  0  0  0  0  0  0  0  0  0  0
    8.4689    0.1204    4.8484 O   0  0  0  0  0  0  0  0  0  0  0  0
    9.1975   -0.3720    5.9748 C   0  0  2  0  0  0  0  0  0  0  0  0
    8.6320   -0.1784    6.8864 H   0  0  0  0  0  0  0  0  0  0  0  0
   10.5529    0.3352    6.0549 C   0  0  1  0  0  0  0  0  0  0  0  0
   10.3981    1.4031    6.2087 H   0  0  0  0  0  0  0  0  0  0  0  0
   11.3518   -0.2404    7.2283 C   0  0  1  0  0  0  0  0  0  0  0  0
   10.8265   -0.0374    8.1615 H   0  0  0  0  0  0  0  0  0  0  0  0
   11.4959   -1.7537    7.0401 C   0  0  1  0  0  0  0  0  0  0  0  0
   12.0154   -2.1797    7.8984 H   0  0  0  0  0  0  0  0  0  0  0  0
   10.1040   -2.3802    6.9220 C   0  0  1  0  0  0  0  0  0  0  0  0
    9.5505   -2.2130    7.8460 H   0  0  0  0  0  0  0  0  0  0  0  0
    9.4032   -1.7788    5.8314 O   0  0  0  0  0  0  0  0  0  0  0  0
   10.2407   -3.8838    6.6740 C   0  0  0  0  0  0  0  0  0  0  0  0
    8.9453   -4.4871    6.6797 O   0  0  0  0  0  0  0  0  0  0  0  0
   12.2424   -2.0181    5.8506 O   0  0  0  0  0  0  0  0  0  0  0  0
   12.6463    0.3636    7.2673 O   0  0  0  0  0  0  0  0  0  0  0  0
   11.2726    0.1274    4.8380 O   0  0  0  0  0  0  0  0  0  0  0  0
    4.7305   -2.2467    6.5805 O   0  0  0  0  0  0  0  0  0  0  0  0
   -1.3978   -1.9150    1.9924 O   0  0  0  0  0  0  0  0  0  0  0  0
   -2.4875   -4.4259    2.5843 O   0  0  0  0  0  0  0  0  0  0  0  0
   -1.1539   -3.7471    0.2168 O   0  0  0  0  0  0  0  0  0  0  0  0
    2.6244   -4.3531   -0.2222 H   0  0  0  0  0  0  0  0  0  0  0  0
    1.3736   -5.5920   -0.4847 H   0  0  0  0  0  0  0  0  0  0  0  0
    1.0569   -3.8986   -0.9325 H   0  0  0  0  0  0  0  0  0  0  0  0
    7.2074   -1.4080    6.5517 H   0  0  0  0  0  0  0  0  0  0  0  0
    3.8076   -0.1344   -0.1936 H   0  0  0  0  0  0  0  0  0  0  0  0
    2.5571    0.7084   -2.1339 H   0  0  0  0  0  0  0  0  0  0  0  0
   -0.6411    1.9174    0.4355 H   0  0  0  0  0  0  0  0  0  0  0  0
    0.5932    1.0690    2.3838 H   0  0  0  0  0  0  0  0  0  0  0  0
   -0.9720    3.2663   -1.1239 H   0  0  0  0  0  0  0  0  0  0  0  0
   -1.5262    2.7421   -2.7321 H   0  0  0  0  0  0  0  0  0  0  0  0
   -1.7366    1.6716   -1.3257 H   0  0  0  0  0  0  0  0  0  0  0  0
    6.2849    1.7941    2.2656 H   0  0  0  0  0  0  0  0  0  0  0  0
    7.8641    1.6354    3.0712 H   0  0  0  0  0  0  0  0  0  0  0  0
    8.2427   -0.5457    1.6711 H   0  0  0  0  0  0  0  0  0  0  0  0
    6.6748    2.5219   -0.1219 H   0  0  0  0  0  0  0  0  0  0  0  0
    5.5519    1.3734   -0.8890 H   0  0  0  0  0  0  0  0  0  0  0  0
    5.4468    1.6874    0.8599 H   0  0  0  0  0  0  0  0  0  0  0  0
    6.8979   -1.2492   -0.9801 H   0  0  0  0  0  0  0  0  0  0  0  0
    7.5761    0.1847   -1.7878 H   0  0  0  0  0  0  0  0  0  0  0  0
    8.5774   -0.7564   -0.6565 H   0  0  0  0  0  0  0  0  0  0  0  0
   10.7150   -4.0509    5.7069 H   0  0  0  0  0  0  0  0  0  0  0  0
   10.8517   -4.3276    7.4599 H   0  0  0  0  0  0  0  0  0  0  0  0
    8.9556   -5.4421    6.5281 H   0  0  0  0  0  0  0  0  0  0  0  0
   13.1347   -1.6453    5.8553 H   0  0  0  0  0  0  0  0  0  0  0  0
   12.6290    1.3240    7.3786 H   0  0  0  0  0  0  0  0  0  0  0  0
   10.8215    0.4643    4.0518 H   0  0  0  0  0  0  0  0  0  0  0  0
    4.8074   -3.1919    6.3912 H   0  0  0  0  0  0  0  0  0  0  0  0
   -1.2357   -0.9746    2.1484 H   0  0  0  0  0  0  0  0  0  0  0  0
   -2.9098   -4.2370    3.4334 H   0  0  0  0  0  0  0  0  0  0  0  0
   -0.8432   -3.8983   -0.6863 H   0  0  0  0  0  0  0  0  0  0  0  0
  1  2  1  0  0  0  0
  1 59  1  0  0  0  0
  1 60  1  0  0  0  0
  1 61  1  0  0  0  0
  2  3  1  1  0  0  0
  2 12  1  0  0  0  0
  2  4  1  0  0  0  0
  4  5  1  6  0  0  0
  4  6  1  0  0  0  0
  4 58  1  0  0  0  0
  6  7  1  1  0  0  0
  6  8  1  0  0  0  0
  6 57  1  0  0  0  0
  8  9  1  1  0  0  0
  8 10  1  0  0  0  0
  8 56  1  0  0  0  0
 10 11  1  1  0  0  0
 10 12  1  0  0  0  0
 10 13  1  0  0  0  0
 13 14  1  0  0  0  0
 14 24  2  0  0  0  0
 14 15  1  0  0  0  0
 15 16  2  0  0  0  0
 15 17  1  0  0  0  0
 17 22  2  0  0  0  0
 17 18  1  0  0  0  0
 18 19  2  0  0  0  0
 18 55  1  0  0  0  0
 19 20  1  0  0  0  0
 19 62  1  0  0  0  0
 20 21  2  0  0  0  0
 20 38  1  0  0  0  0
 21 22  1  0  0  0  0
 21 33  1  0  0  0  0
 22 23  1  0  0  0  0
 23 24  1  0  0  0  0
 24 25  1  0  0  0  0
 25 30  2  0  0  0  0
 25 26  1  0  0  0  0
 26 27  2  0  0  0  0
 26 63  1  0  0  0  0
 27 28  1  0  0  0  0
 27 64  1  0  0  0  0
 28 29  2  0  0  0  0
 28 31  1  0  0  0  0
 29 30  1  0  0  0  0
 29 65  1  0  0  0  0
 30 66  1  0  0  0  0
 31 32  1  0  0  0  0
 32 67  1  0  0  0  0
 32 68  1  0  0  0  0
 32 69  1  0  0  0  0
 33 34  1  0  0  0  0
 33 70  1  0  0  0  0
 33 71  1  0  0  0  0
 34 35  2  0  0  0  0
 34 72  1  0  0  0  0
 35 36  1  0  0  0  0
 35 37  1  0  0  0  0
 36 73  1  0  0  0  0
 36 74  1  0  0  0  0
 36 75  1  0  0  0  0
 37 76  1  0  0  0  0
 37 77  1  0  0  0  0
 37 78  1  0  0  0  0
 38 39  1  0  0  0  0
 39 40  1  1  0  0  0
 39 49  1  0  0  0  0
 39 41  1  0  0  0  0
 41 42  1  1  0  0  0
 41 43  1  0  0  0  0
 41 54  1  0  0  0  0
 43 44  1  1  0  0  0
 43 45  1  0  0  0  0
 43 53  1  0  0  0  0
 45 46  1  1  0  0  0
 45 47  1  0  0  0  0
 45 52  1  0  0  0  0
 47 48  1  1  0  0  0
 47 49  1  0  0  0  0
 47 50  1  0  0  0  0
 50 51  1  0  0  0  0
 50 79  1  0  0  0  0
 50 80  1  0  0  0  0
 51 81  1  0  0  0  0
 52 82  1  0  0  0  0
 53 83  1  0  0  0  0
 54 84  1  0  0  0  0
 55 85  1  0  0  0  0
 56 86  1  0  0  0  0
 57 87  1  0  0  0  0
 58 88  1  0  0  0  0
M  END
>  <cansmi>
COc1ccc(cc1)c1oc2c(CC=C(C)C)c(O[C@H]3O[C@@H](CO)[C@H]([C@H]([C@H]3O)O)O)cc(c2c(=O)c1O[C@@H]1O[C@H](C)[C@@H]([C@@H]([C@@H]1O)O)O)O

>  <HBA2>
15

>  <HBD>
8

>  <logP>
0.0679

>  <TPSA>
238.2

>  <MW>
676.662

$$$$
ZINC49639414
 OpenBabel02121623173D

 88 92  0  0  1  0  0  0  0  0999 V2000
    2.5591   -2.4960    2.5073 C   0  0  0  0  0  0  0  0  0  0  0  0
    1.6163   -2.1726    1.3465 C   0  0  1  0  0  0  0  0  0  0  0  0
    1.2973   -1.1327    1.4162 H   0  0  0  0  0  0  0  0  0  0  0  0
    2.3459   -2.3950    0.0191 C   0  0  1  0  0  0  0  0  0  0  0  0
    2.7008   -3.4243   -0.0335 H   0  0  0  0  0  0  0  0  0  0  0  0
    1.3780   -2.1275   -1.1376 C   0  0  1  0  0  0  0  0  0  0  0  0
    1.8747   -2.3380   -2.0848 H   0  0  0  0  0  0  0  0  0  0  0  0
    0.1554   -3.0377   -0.9867 C   0  0  1  0  0  0  0  0  0  0  0  0
    0.4660   -4.0800   -1.0597 H   0  0  0  0  0  0  0  0  0  0  0  0
   -0.4896   -2.7906    0.3795 C   0  0  1  0  0  0  0  0  0  0  0  0
   -1.3351   -3.4661    0.5099 H   0  0  0  0  0  0  0  0  0  0  0  0
    0.4727   -3.0272    1.4091 O   0  0  0  0  0  0  0  0  0  0  0  0
   -0.9445   -1.4379    0.4541 O   0  0  0  0  0  0  0  0  0  0  0  0
   -1.8084   -1.1311    1.4599 C   0  0  0  0  0  0  0  0  0  0  0  0
   -3.0864   -1.7449    1.5172 C   0  0  0  0  0  0  0  0  0  0  0  0
   -3.4394   -2.5548    0.6748 O   0  0  0  0  0  0  0  0  0  0  0  0
   -3.9696   -1.3674    2.6322 C   0  0  0  0  0  0  0  0  0  0  0  0
   -5.2482   -1.9244    2.7670 C   0  0  0  0  0  0  0  0  0  0  0  0
   -6.0478   -1.5444    3.8284 C   0  0  0  0  0  0  0  0  0  0  0  0
   -5.5850   -0.6155    4.7546 C   0  0  0  0  0  0  0  0  0  0  0  0
   -4.3217   -0.0600    4.6274 C   0  0  0  0  0  0  0  0  0  0  0  0
   -3.5041   -0.4291    3.5698 C   0  0  0  0  0  0  0  0  0  0  0  0
   -2.2710    0.1018    3.4331 O   0  0  0  0  0  0  0  0  0  0  0  0
   -1.4509   -0.2363    2.4233 C   0  0  0  0  0  0  0  0  0  0  0  0
   -0.1171    0.3884    2.3524 C   0  0  0  0  0  0  0  0  0  0  0  0
    0.3120    0.9923    1.1669 C   0  0  0  0  0  0  0  0  0  0  0  0
    1.5586    1.5750    1.1054 C   0  0  0  0  0  0  0  0  0  0  0  0
    2.3893    1.5628    2.2192 C   0  0  0  0  0  0  0  0  0  0  0  0
    1.9670    0.9636    3.3996 C   0  0  0  0  0  0  0  0  0  0  0  0
    0.7197    0.3835    3.4721 C   0  0  0  0  0  0  0  0  0  0  0  0
    3.6178    2.1376    2.1537 O   0  0  0  0  0  0  0  0  0  0  0  0
    4.4204    2.0894    3.3351 C   0  0  0  0  0  0  0  0  0  0  0  0
   -3.8359    0.9454    5.6394 C   0  0  0  0  0  0  0  0  0  0  0  0
   -3.0466    0.2385    6.7109 C   0  0  0  0  0  0  0  0  0  0  0  0
   -1.8005    0.5744    6.9359 C   0  0  0  0  0  0  0  0  0  0  0  0
   -1.1626    1.6815    6.1369 C   0  0  0  0  0  0  0  0  0  0  0  0
   -1.0051   -0.1462    7.9937 C   0  0  0  0  0  0  0  0  0  0  0  0
   -6.3788   -0.2490    5.7931 O   0  0  0  0  0  0  0  0  0  0  0  0
   -7.6700   -0.8567    5.8686 C   0  0  2  0  0  0  0  0  0  0  0  0
   -8.1690   -0.7712    4.9034 H   0  0  0  0  0  0  0  0  0  0  0  0
   -8.5051   -0.1498    6.9395 C   0  0  1  0  0  0  0  0  0  0  0  0
   -8.6518    0.8928    6.6576 H   0  0  0  0  0  0  0  0  0  0  0  0
   -9.8651   -0.8447    7.0564 C   0  0  1  0  0  0  0  0  0  0  0  0
  -10.4043   -0.7519    6.1137 H   0  0  0  0  0  0  0  0  0  0  0  0
   -9.6433   -2.3262    7.3762 C   0  0  1  0  0  0  0  0  0  0  0  0
  -10.6041   -2.8401    7.4067 H   0  0  0  0  0  0  0  0  0  0  0  0
   -8.7643   -2.9490    6.2885 C   0  0  1  0  0  0  0  0  0  0  0  0
   -9.2777   -2.8911    5.3288 H   0  0  0  0  0  0  0  0  0  0  0  0
   -7.5279   -2.2368    6.2110 O   0  0  0  0  0  0  0  0  0  0  0  0
   -8.4887   -4.4143    6.6320 C   0  0  0  0  0  0  0  0  0  0  0  0
   -7.7671   -5.0269    5.5615 O   0  0  0  0  0  0  0  0  0  0  0  0
   -8.9956   -2.4494    8.6440 O   0  0  0  0  0  0  0  0  0  0  0  0
  -10.6243   -0.2364    8.1032 O   0  0  0  0  0  0  0  0  0  0  0  0
   -7.8251   -0.2140    8.1947 O   0  0  0  0  0  0  0  0  0  0  0  0
   -5.6983   -2.8300    1.8618 O   0  0  0  0  0  0  0  0  0  0  0  0
   -0.7871   -2.7469   -2.0207 O   0  0  0  0  0  0  0  0  0  0  0  0
    0.9645   -0.7599   -1.1084 O   0  0  0  0  0  0  0  0  0  0  0  0
    3.4575   -1.5014   -0.0704 O   0  0  0  0  0  0  0  0  0  0  0  0
    2.8780   -3.5359    2.4375 H   0  0  0  0  0  0  0  0  0  0  0  0
    3.4315   -1.8444    2.4591 H   0  0  0  0  0  0  0  0  0  0  0  0
    2.0393   -2.3380    3.4523 H   0  0  0  0  0  0  0  0  0  0  0  0
   -7.0345   -1.9695    3.9388 H   0  0  0  0  0  0  0  0  0  0  0  0
   -0.3328    1.0017    0.3006 H   0  0  0  0  0  0  0  0  0  0  0  0
    1.8910    2.0418    0.1900 H   0  0  0  0  0  0  0  0  0  0  0  0
    2.6159    0.9564    4.2629 H   0  0  0  0  0  0  0  0  0  0  0  0
    0.3905   -0.0781    4.3913 H   0  0  0  0  0  0  0  0  0  0  0  0
    4.5978    1.0501    3.6116 H   0  0  0  0  0  0  0  0  0  0  0  0
    5.3738    2.5831    3.1470 H   0  0  0  0  0  0  0  0  0  0  0  0
    3.9019    2.5982    4.1477 H   0  0  0  0  0  0  0  0  0  0  0  0
   -3.2004    1.6804    5.1452 H   0  0  0  0  0  0  0  0  0  0  0  0
   -4.6909    1.4491    6.0904 H   0  0  0  0  0  0  0  0  0  0  0  0
   -3.5082   -0.5451    7.2934 H   0  0  0  0  0  0  0  0  0  0  0  0
   -1.4066    2.6429    6.5888 H   0  0  0  0  0  0  0  0  0  0  0  0
   -0.0809    1.5475    6.1296 H   0  0  0  0  0  0  0  0  0  0  0  0
   -1.5388    1.6548    5.1142 H   0  0  0  0  0  0  0  0  0  0  0  0
   -0.5023   -1.0047    7.5484 H   0  0  0  0  0  0  0  0  0  0  0  0
   -0.2625    0.5316    8.4147 H   0  0  0  0  0  0  0  0  0  0  0  0
   -1.6751   -0.4868    8.7831 H   0  0  0  0  0  0  0  0  0  0  0  0
   -7.8976   -4.4681    7.5463 H   0  0  0  0  0  0  0  0  0  0  0  0
   -9.4338   -4.9370    6.7791 H   0  0  0  0  0  0  0  0  0  0  0  0
   -7.5574   -5.9590    5.7112 H   0  0  0  0  0  0  0  0  0  0  0  0
   -9.4960   -2.0709    9.3798 H   0  0  0  0  0  0  0  0  0  0  0  0
  -10.7966    0.7054    7.9678 H   0  0  0  0  0  0  0  0  0  0  0  0
   -6.9532    0.2041    8.1915 H   0  0  0  0  0  0  0  0  0  0  0  0
   -5.4920   -3.7474    2.0873 H   0  0  0  0  0  0  0  0  0  0  0  0
   -1.5881   -3.2875   -1.9864 H   0  0  0  0  0  0  0  0  0  0  0  0
    0.3492   -0.5199   -1.8146 H   0  0  0  0  0  0  0  0  0  0  0  0
    4.1094   -1.6128    0.6351 H   0  0  0  0  0  0  0  0  0  0  0  0
  1  2  1  0  0  0  0
  1 59  1  0  0  0  0
  1 60  1  0  0  0  0
  1 61  1  0  0  0  0
  2  3  1  1  0  0  0
  2 12  1  0  0  0  0
  2  4  1  0  0  0  0
  4  5  1  6  0  0  0
  4  6  1  0  0  0  0
  4 58  1  0  0  0  0
  6  7  1  6  0  0  0
  6  8  1  0  0  0  0
  6 57  1  0  0  0  0
  8  9  1  6  0  0  0
  8 10  1  0  0  0  0
  8 56  1  0  0  0  0
 10 11  1  1  0  0  0
 10 12  1  0  0  0  0
 10 13  1  0  0  0  0
 13 14  1  0  0  0  0
 14 24  2  0  0  0  0
 14 15  1  0  0  0  0
 15 16  2  0  0  0  0
 15 17  1  0  0  0  0
 17 22  2  0  0  0  0
 17 18  1  0  0  0  0
 18 19  2  0  0  0  0
 18 55  1  0  0  0  0
 19 20  1  0  0  0  0
 19 62  1  0  0  0  0
 20 21  2  0  0  0  0
 20 38  1  0  0  0  0
 21 22  1  0  0  0  0
 21 33  1  0  0  0  0
 22 23  1  0  0  0  0
 23 24  1  0  0  0  0
 24 25  1  0  0  0  0
 25 30  2  0  0  0  0
 25 26  1  0  0  0  0
 26 27  2  0  0  0  0
 26 63  1  0  0  0  0
 27 28  1  0  0  0  0
 27 64  1  0  0  0  0
 28 29  2  0  0  0  0
 28 31  1  0  0  0  0
 29 30  1  0  0  0  0
 29 65  1  0  0  0  0
 30 66  1  0  0  0  0
 31 32  1  0  0  0  0
 32 67  1  0  0  0  0
 32 68  1  0  0  0  0
 32 69  1  0  0  0  0
 33 34  1  0  0  0  0
 33 70  1  0  0  0  0
 33 71  1  0  0  0  0
 34 35  2  0  0  0  0
 34 72  1  0  0  0  0
 35 36  1  0  0  0  0
 35 37  1  0  0  0  0
 36 73  1  0  0  0  0
 36 74  1  0  0  0  0
 36 75  1  0  0  0  0
 37 76  1  0  0  0  0
 37 77  1  0  0  0  0
 37 78  1  0  0  0  0
 38 39  1  0  0  0  0
 39 40  1  6  0  0  0
 39 49  1  0  0  0  0
 39 41  1  0  0  0  0
 41 42  1  6  0  0  0
 41 43  1  0  0  0  0
 41 54  1  0  0  0  0
 43 44  1  6  0  0  0
 43 45  1  0  0  0  0
 43 53  1  0  0  0  0
 45 46  1  1  0  0  0
 45 47  1  0  0  0  0
 45 52  1  0  0  0  0
 47 48  1  6  0  0  0
 47 49  1  0  0  0  0
 47 50  1  0  0  0  0
 50 51  1  0  0  0  0
 50 79  1  0  0  0  0
 50 80  1  0  0  0  0
 51 81  1  0  0  0  0
 52 82  1  0  0  0  0
 53 83  1  0  0  0  0
 54 84  1  0  0  0  0
 55 85  1  0  0  0  0
 56 86  1  0  0  0  0
 57 87  1  0  0  0  0
 58 88  1  0  0  0  0
M  END
>  <cansmi>
COc1ccc(cc1)c1oc2c(CC=C(C)C)c(O[C@H]3O[C@@H](CO)[C@H]([C@H]([C@H]3O)O)O)cc(c2c(=O)c1O[C@@H]1O[C@@H](C)[C@@H]([C@@H]([C@@H]1O)O)O)O

>  <HBA2>
15

>  <HBD>
8

>  <logP>
0.0679

>  <TPSA>
238.2

>  <MW>
676.662

$$$$
ZINC49639416
 OpenBabel02121623173D

 88 92  0  0  1  0  0  0  0  0999 V2000
    1.5526   -4.5514   -0.2141 C   0  0  0  0  0  0  0  0  0  0  0  0
    0.9953   -4.2854    1.1858 C   0  0  2  0  0  0  0  0  0  0  0  0
    1.4910   -4.9382    1.9044 H   0  0  0  0  0  0  0  0  0  0  0  0
   -0.5101   -4.5634    1.1973 C   0  0  2  0  0  0  0  0  0  0  0  0
   -1.0013   -3.9399    0.4502 H   0  0  0  0  0  0  0  0  0  0  0  0
   -1.0710   -4.2374    2.5849 C   0  0  1  0  0  0  0  0  0  0  0  0
   -0.6160   -4.8948    3.3258 H   0  0  0  0  0  0  0  0  0  0  0  0
   -0.7464   -2.7796    2.9252 C   0  0  1  0  0  0  0  0  0  0  0  0
   -1.0935   -2.5551    3.9338 H   0  0  0  0  0  0  0  0  0  0  0  0
    0.7682   -2.5706    2.8470 C   0  0  1  0  0  0  0  0  0  0  0  0
    1.2608   -3.2007    3.5875 H   0  0  0  0  0  0  0  0  0  0  0  0
    1.2295   -2.9211    1.5407 O   0  0  0  0  0  0  0  0  0  0  0  0
    1.0742   -1.1995    3.1087 O   0  0  0  0  0  0  0  0  0  0  0  0
    2.3851   -0.8830    3.2913 C   0  0  0  0  0  0  0  0  0  0  0  0
    3.0913   -1.3814    4.4166 C   0  0  0  0  0  0  0  0  0  0  0  0
    2.5465   -2.0988    5.2404 O   0  0  0  0  0  0  0  0  0  0  0  0
    4.5062   -1.0000    4.5515 C   0  0  0  0  0  0  0  0  0  0  0  0
    5.2794   -1.4471    5.6312 C   0  0  0  0  0  0  0  0  0  0  0  0
    6.6053   -1.0673    5.7224 C   0  0  0  0  0  0  0  0  0  0  0  0
    7.1658   -0.2470    4.7488 C   0  0  0  0  0  0  0  0  0  0  0  0
    6.4070    0.1994    3.6785 C   0  0  0  0  0  0  0  0  0  0  0  0
    5.0753   -0.1715    3.5688 C   0  0  0  0  0  0  0  0  0  0  0  0
    4.3237    0.2539    2.5318 O   0  0  0  0  0  0  0  0  0  0  0  0
    3.0318   -0.0895    2.3920 C   0  0  0  0  0  0  0  0  0  0  0  0
    2.2853    0.4156    1.2251 C   0  0  0  0  0  0  0  0  0  0  0  0
    2.8347    0.3139   -0.0563 C   0  0  0  0  0  0  0  0  0  0  0  0
    2.1334    0.7866   -1.1436 C   0  0  0  0  0  0  0  0  0  0  0  0
    0.8820    1.3644   -0.9681 C   0  0  0  0  0  0  0  0  0  0  0  0
    0.3319    1.4676    0.3038 C   0  0  0  0  0  0  0  0  0  0  0  0
    1.0234    0.9924    1.3962 C   0  0  0  0  0  0  0  0  0  0  0  0
    0.1946    1.8299   -2.0427 O   0  0  0  0  0  0  0  0  0  0  0  0
   -1.0860    2.4120   -1.7912 C   0  0  0  0  0  0  0  0  0  0  0  0
    7.0297    1.0880    2.6327 C   0  0  0  0  0  0  0  0  0  0  0  0
    7.5286    0.2438    1.4885 C   0  0  0  0  0  0  0  0  0  0  0  0
    7.0962    0.4674    0.2723 C   0  0  0  0  0  0  0  0  0  0  0  0
    6.1253    1.5902    0.0124 C   0  0  0  0  0  0  0  0  0  0  0  0
    7.5697   -0.3983   -0.8668 C   0  0  0  0  0  0  0  0  0  0  0  0
    8.4689    0.1204    4.8484 O   0  0  0  0  0  0  0  0  0  0  0  0
    9.1975   -0.3720    5.9748 C   0  0  2  0  0  0  0  0  0  0  0  0
    8.6320   -0.1784    6.8864 H   0  0  0  0  0  0  0  0  0  0  0  0
   10.5529    0.3352    6.0549 C   0  0  1  0  0  0  0  0  0  0  0  0
   10.3981    1.4031    6.2087 H   0  0  0  0  0  0  0  0  0  0  0  0
   11.3518   -0.2404    7.2283 C   0  0  1  0  0  0  0  0  0  0  0  0
   10.8265   -0.0374    8.1615 H   0  0  0  0  0  0  0  0  0  0  0  0
   11.4959   -1.7537    7.0401 C   0  0  1  0  0  0  0  0  0  0  0  0
   12.0154   -2.1797    7.8984 H   0  0  0  0  0  0  0  0  0  0  0  0
   10.1040   -2.3802    6.9220 C   0  0  1  0  0  0  0  0  0  0  0  0
    9.5505   -2.2130    7.8460 H   0  0  0  0  0  0  0  0  0  0  0  0
    9.4032   -1.7788    5.8314 O   0  0  0  0  0  0  0  0  0  0  0  0
   10.2407   -3.8838    6.6740 C   0  0  0  0  0  0  0  0  0  0  0  0
    8.9453   -4.4871    6.6797 O   0  0  0  0  0  0  0  0  0  0  0  0
   12.2424   -2.0181    5.8506 O   0  0  0  0  0  0  0  0  0  0  0  0
   12.6463    0.3636    7.2673 O   0  0  0  0  0  0  0  0  0  0  0  0
   11.2726    0.1274    4.8380 O   0  0  0  0  0  0  0  0  0  0  0  0
    4.7305   -2.2467    6.5805 O   0  0  0  0  0  0  0  0  0  0  0  0
   -1.3978   -1.9150    1.9924 O   0  0  0  0  0  0  0  0  0  0  0  0
   -2.4875   -4.4259    2.5843 O   0  0  0  0  0  0  0  0  0  0  0  0
   -0.7437   -5.9410    0.8980 O   0  0  0  0  0  0  0  0  0  0  0  0
    2.6244   -4.3531   -0.2222 H   0  0  0  0  0  0  0  0  0  0  0  0
    1.3736   -5.5920   -0.4847 H   0  0  0  0  0  0  0  0  0  0  0  0
    1.0569   -3.8986   -0.9325 H   0  0  0  0  0  0  0  0  0  0  0  0
    7.2074   -1.4080    6.5517 H   0  0  0  0  0  0  0  0  0  0  0  0
    3.8076   -0.1344   -0.1936 H   0  0  0  0  0  0  0  0  0  0  0  0
    2.5571    0.7084   -2.1339 H   0  0  0  0  0  0  0  0  0  0  0  0
   -0.6411    1.9174    0.4355 H   0  0  0  0  0  0  0  0  0  0  0  0
    0.5932    1.0690    2.3838 H   0  0  0  0  0  0  0  0  0  0  0  0
   -0.9720    3.2663   -1.1239 H   0  0  0  0  0  0  0  0  0  0  0  0
   -1.5262    2.7421   -2.7321 H   0  0  0  0  0  0  0  0  0  0  0  0
   -1.7366    1.6716   -1.3257 H   0  0  0  0  0  0  0  0  0  0  0  0
    6.2849    1.7941    2.2656 H   0  0  0  0  0  0  0  0  0  0  0  0
    7.8641    1.6354    3.0712 H   0  0  0  0  0  0  0  0  0  0  0  0
    8.2427   -0.5457    1.6711 H   0  0  0  0  0  0  0  0  0  0  0  0
    6.6748    2.5219   -0.1219 H   0  0  0  0  0  0  0  0  0  0  0  0
    5.5519    1.3734   -0.8890 H   0  0  0  0  0  0  0  0  0  0  0  0
    5.4468    1.6874    0.8599 H   0  0  0  0  0  0  0  0  0  0  0  0
    6.8979   -1.2492   -0.9801 H   0  0  0  0  0  0  0  0  0  0  0  0
    7.5761    0.1847   -1.7878 H   0  0  0  0  0  0  0  0  0  0  0  0
    8.5774   -0.7564   -0.6565 H   0  0  0  0  0  0  0  0  0  0  0  0
   10.7150   -4.0509    5.7069 H   0  0  0  0  0  0  0  0  0  0  0  0
   10.8517   -4.3276    7.4599 H   0  0  0  0  0  0  0  0  0  0  0  0
    8.9556   -5.4421    6.5281 H   0  0  0  0  0  0  0  0  0  0  0  0
   13.1347   -1.6453    5.8553 H   0  0  0  0  0  0  0  0  0  0  0  0
   12.6290    1.3240    7.3786 H   0  0  0  0  0  0  0  0  0  0  0  0
   10.8215    0.4643    4.0518 H   0  0  0  0  0  0  0  0  0  0  0  0
    4.8074   -3.1919    6.3912 H   0  0  0  0  0  0  0  0  0  0  0  0
   -1.2357   -0.9746    2.1484 H   0  0  0  0  0  0  0  0  0  0  0  0
   -2.9098   -4.2370    3.4334 H   0  0  0  0  0  0  0  0  0  0  0  0
   -0.4094   -6.2179    0.0339 H   0  0  0  0  0  0  0  0  0  0  0  0
  1  2  1  0  0  0  0
  1 59  1  0  0  0  0
  1 60  1  0  0  0  0
  1 61  1  0  0  0  0
  2  3  1  1  0  0  0
  2 12  1  0  0  0  0
  2  4  1  0  0  0  0
  4  5  1  6  0  0  0
  4  6  1  0  0  0  0
  4 58  1  0  0  0  0
  6  7  1  1  0  0  0
  6  8  1  0  0  0  0
  6 57  1  0  0  0  0
  8  9  1  1  0  0  0
  8 10  1  0  0  0  0
  8 56  1  0  0  0  0
 10 11  1  1  0  0  0
 10 12  1  0  0  0  0
 10 13  1  0  0  0  0
 13 14  1  0  0  0  0
 14 24  2  0  0  0  0
 14 15  1  0  0  0  0
 15 16  2  0  0  0  0
 15 17  1  0  0  0  0
 17 22  2  0  0  0  0
 17 18  1  0  0  0  0
 18 19  2  0  0  0  0
 18 55  1  0  0  0  0
 19 20  1  0  0  0  0
 19 62  1  0  0  0  0
 20 21  2  0  0  0  0
 20 38  1  0  0  0  0
 21 22  1  0  0  0  0
 21 33  1  0  0  0  0
 22 23  1  0  0  0  0
 23 24  1  0  0  0  0
 24 25  1  0  0  0  0
 25 30  2  0  0  0  0
 25 26  1  0  0  0  0
 26 27  2  0  0  0  0
 26 63  1  0  0  0  0
 27 28  1  0  0  0  0
 27 64  1  0  0  0  0
 28 29  2  0  0  0  0
 28 31  1  0  0  0  0
 29 30  1  0  0  0  0
 29 65  1  0  0  0  0
 30 66  1  0  0  0  0
 31 32  1  0  0  0  0
 32 67  1  0  0  0  0
 32 68  1  0  0  0  0
 32 69  1  0  0  0  0
 33 34  1  0  0  0  0
 33 70  1  0  0  0  0
 33 71  1  0  0  0  0
 34 35  2  0  0  0  0
 34 72  1  0  0  0  0
 35 36  1  0  0  0  0
 35 37  1  0  0  0  0
 36 73  1  0  0  0  0
 36 74  1  0  0  0  0
 36 75  1  0  0  0  0
 37 76  1  0  0  0  0
 37 77  1  0  0  0  0
 37 78  1  0  0  0  0
 38 39  1  0  0  0  0
 39 40  1  1  0  0  0
 39 49  1  0  0  0  0
 39 41  1  0  0  0  0
 41 42  1  1  0  0  0
 41 43  1  0  0  0  0
 41 54  1  0  0  0  0
 43 44  1  1  0  0  0
 43 45  1  0  0  0  0
 43 53  1  0  0  0  0
 45 46  1  1  0  0  0
 45 47  1  0  0  0  0
 45 52  1  0  0  0  0
 47 48  1  1  0  0  0
 47 49  1  0  0  0  0
 47 50  1  0  0  0  0
 50 51  1  0  0  0  0
 50 79  1  0  0  0  0
 50 80  1  0  0  0  0
 51 81  1  0  0  0  0
 52 82  1  0  0  0  0
 53 83  1  0  0  0  0
 54 84  1  0  0  0  0
 55 85  1  0  0  0  0
 56 86  1  0  0  0  0
 57 87  1  0  0  0  0
 58 88  1  0  0  0  0
M  END
>  <cansmi>
COc1ccc(cc1)c1oc2c(CC=C(C)C)c(O[C@H]3O[C@@H](CO)[C@H]([C@H]([C@H]3O)O)O)cc(c2c(=O)c1O[C@@H]1O[C@H](C)[C@H]([C@@H]([C@@H]1O)O)O)O

>  <HBA2>
15

>  <HBD>
8

>  <logP>
0.0679

>  <TPSA>
238.2

>  <MW>
676.662

$$$$
ZINC38140516
 OpenBabel02121623173D

 80 84  0  0  1  0  0  0  0  0999 V2000
    1.0496    1.4744   -0.2424 C   0  0  0  0  0  0  0  0  0  0  0  0
    0.9776   -0.0468   -0.1716 C   0  0  2  0  0  0  0  0  0  0  0  0
   -0.4414   -0.4320    0.2852 C   0  0  0  0  0  0  0  0  0  0  0  0
   -0.6897    0.1067    1.6909 C   0  0  0  0  0  0  0  0  0  0  0  0
    0.2812   -0.5259    2.6789 C   0  0  1  0  0  0  0  0  0  0  0  0
    0.0837   -1.6021    2.7373 H   0  0  0  0  0  0  0  0  0  0  0  0
    1.7401   -0.3149    2.2727 C   0  0  0  0  0  0  0  0  0  0  0  0
    1.9789   -0.6323    0.8152 C   0  0  2  0  0  0  0  0  0  0  0  0
    1.8838   -1.7444    0.7165 H   0  0  0  0  0  0  0  0  0  0  0  0
    3.3983   -0.3014    0.3539 C   0  0  0  0  0  0  0  0  0  0  0  0
    3.6415   -1.0889   -0.9453 C   0  0  0  0  0  0  0  0  0  0  0  0
    2.6563   -0.6599   -2.0262 C   0  0  2  0  0  0  0  0  0  0  0  0
    1.2136   -0.6828   -1.5431 C   0  0  2  0  0  0  0  0  0  0  0  0
    0.8926   -1.7402   -1.4417 H   0  0  0  0  0  0  0  0  0  0  0  0
    0.3116   -0.0483   -2.6021 C   0  0  0  0  0  0  0  0  0  0  0  0
    0.6022   -0.6520   -3.9456 C   0  0  0  0  0  0  0  0  0  0  0  0
    1.6958   -1.3013   -4.2436 C   0  0  0  0  0  0  0  0  0  0  0  0
    2.7840   -1.5827   -3.2502 C   0  0  1  0  0  0  0  0  0  0  0  0
    4.1715   -1.4761   -3.8675 C   0  0  0  0  0  0  0  0  0  0  0  0
    4.2334   -2.1439   -5.2427 C   0  0  0  0  0  0  0  0  0  0  0  0
    3.2141   -1.5179   -6.1889 C   0  0  2  0  0  0  0  0  0  0  0  0
    1.8056   -1.8053   -5.6737 C   0  0  1  0  0  0  0  0  0  0  0  0
    1.0844   -1.2438   -6.2878 H   0  0  0  0  0  0  0  0  0  0  0  0
    1.4872   -3.2910   -5.7424 C   0  0  0  0  0  0  0  0  0  0  0  0
    1.6418   -3.8241   -7.1678 C   0  0  0  0  0  0  0  0  0  0  0  0
    3.0578   -3.5504   -7.6696 C   0  0  0  0  0  0  0  0  0  0  0  0
    3.3860   -2.0656   -7.6041 C   0  0  0  0  0  0  0  0  0  0  0  0
    0.6108   -3.1802   -8.0925 C   0  0  0  0  0  0  0  0  0  0  0  0
    1.4091   -5.3427   -7.1506 C   0  0  0  0  0  0  0  0  0  0  0  0
    3.4206   -0.0218   -6.2447 C   0  0  0  0  0  0  0  0  0  0  0  0
    4.4867    0.4328   -6.6234 O   0  0  0  0  0  0  0  0  0  0  0  0
    2.5212    0.7307   -5.9109 O   0  5  0  0  0  0  0  0  0  0  0  0
    2.6055   -3.0264   -2.7623 C   0  0  0  0  0  0  0  0  0  0  0  0
    3.0344    0.7562   -2.4903 C   0  0  0  0  0  0  0  0  0  0  0  0
    2.5744   -1.3054    3.1239 C   0  0  0  0  0  0  0  0  0  0  0  0
    2.1912    1.0937    2.6572 C   0  0  0  0  0  0  0  0  0  0  0  0
    0.0720    0.0412    3.9783 O   0  0  0  0  0  0  0  0  0  0  0  0
    2.0840    1.7824   -0.3946 H   0  0  0  0  0  0  0  0  0  0  0  0
    0.4390    1.8287   -1.0729 H   0  0  0  0  0  0  0  0  0  0  0  0
    0.6772    1.8995    0.6896 H   0  0  0  0  0  0  0  0  0  0  0  0
   -1.1651   -0.0028   -0.4063 H   0  0  0  0  0  0  0  0  0  0  0  0
   -0.5304   -1.5174    0.2840 H   0  0  0  0  0  0  0  0  0  0  0  0
   -0.6146    1.1895    1.7190 H   0  0  0  0  0  0  0  0  0  0  0  0
   -1.7152   -0.1601    1.9877 H   0  0  0  0  0  0  0  0  0  0  0  0
    3.5355    0.7555    0.1833 H   0  0  0  0  0  0  0  0  0  0  0  0
    4.1252   -0.6437    1.0936 H   0  0  0  0  0  0  0  0  0  0  0  0
    4.6626   -0.8894   -1.2809 H   0  0  0  0  0  0  0  0  0  0  0  0
    3.5506   -2.1435   -0.6978 H   0  0  0  0  0  0  0  0  0  0  0  0
   -0.7358   -0.2597   -2.3499 H   0  0  0  0  0  0  0  0  0  0  0  0
    0.4350    1.0275   -2.6637 H   0  0  0  0  0  0  0  0  0  0  0  0
   -0.1434   -0.5441   -4.7229 H   0  0  0  0  0  0  0  0  0  0  0  0
    4.5381   -0.4615   -3.9450 H   0  0  0  0  0  0  0  0  0  0  0  0
    4.8786   -2.0149   -3.2085 H   0  0  0  0  0  0  0  0  0  0  0  0
    5.2371   -2.0027   -5.6578 H   0  0  0  0  0  0  0  0  0  0  0  0
    4.0472   -3.2116   -5.1475 H   0  0  0  0  0  0  0  0  0  0  0  0
    2.1681   -3.8584   -5.1047 H   0  0  0  0  0  0  0  0  0  0  0  0
    0.4628   -3.4656   -5.4046 H   0  0  0  0  0  0  0  0  0  0  0  0
    3.7720   -4.1106   -7.0604 H   0  0  0  0  0  0  0  0  0  0  0  0
    3.1439   -3.8952   -8.7049 H   0  0  0  0  0  0  0  0  0  0  0  0
    2.7473   -1.5053   -8.2880 H   0  0  0  0  0  0  0  0  0  0  0  0
    4.4266   -1.9146   -7.9138 H   0  0  0  0  0  0  0  0  0  0  0  0
    0.7544   -2.0997   -8.1004 H   0  0  0  0  0  0  0  0  0  0  0  0
    0.7347   -3.5705   -9.1026 H   0  0  0  0  0  0  0  0  0  0  0  0
   -0.3926   -3.4107   -7.7344 H   0  0  0  0  0  0  0  0  0  0  0  0
    0.4047   -5.5522   -6.7827 H   0  0  0  0  0  0  0  0  0  0  0  0
    1.5159   -5.7381   -8.1607 H   0  0  0  0  0  0  0  0  0  0  0  0
    2.1417   -5.8150   -6.4961 H   0  0  0  0  0  0  0  0  0  0  0  0
    1.5831   -3.1677   -2.4120 H   0  0  0  0  0  0  0  0  0  0  0  0
    2.8068   -3.7148   -3.5830 H   0  0  0  0  0  0  0  0  0  0  0  0
    3.2999   -3.2222   -1.9452 H   0  0  0  0  0  0  0  0  0  0  0  0
    4.0220    0.7360   -2.9511 H   0  0  0  0  0  0  0  0  0  0  0  0
    2.3017    1.1083   -3.2165 H   0  0  0  0  0  0  0  0  0  0  0  0
    3.0474    1.4284   -1.6323 H   0  0  0  0  0  0  0  0  0  0  0  0
    2.2528   -2.3255    2.9138 H   0  0  0  0  0  0  0  0  0  0  0  0
    3.6302   -1.1987    2.8748 H   0  0  0  0  0  0  0  0  0  0  0  0
    2.4271   -1.0887    4.1820 H   0  0  0  0  0  0  0  0  0  0  0  0
    2.2161    1.1834    3.7433 H   0  0  0  0  0  0  0  0  0  0  0  0
    3.1870    1.2789    2.2545 H   0  0  0  0  0  0  0  0  0  0  0  0
    1.4923    1.8233    2.2483 H   0  0  0  0  0  0  0  0  0  0  0  0
   -0.8199   -0.0929    4.3270 H   0  0  0  0  0  0  0  0  0  0  0  0
  1 38  1  0  0  0  0
  1 39  1  0  0  0  0
  1 40  1  0  0  0  0
  2  1  1  6  0  0  0
  2  8  1  0  0  0  0
  2 13  1  0  0  0  0
  2  3  1  0  0  0  0
  3  4  1  0  0  0  0
  3 41  1  0  0  0  0
  3 42  1  0  0  0  0
  4  5  1  0  0  0  0
  4 43  1  0  0  0  0
  4 44  1  0  0  0  0
  5  6  1  1  0  0  0
  5  7  1  0  0  0  0
  5 37  1  0  0  0  0
  7  8  1  0  0  0  0
  7 35  1  0  0  0  0
  7 36  1  0  0  0  0
  8  9  1  6  0  0  0
  8 10  1  0  0  0  0
 10 11  1  0  0  0  0
 10 45  1  0  0  0  0
 10 46  1  0  0  0  0
 11 12  1  0  0  0  0
 11 47  1  0  0  0  0
 11 48  1  0  0  0  0
 12 18  1  0  0  0  0
 12 13  1  0  0  0  0
 12 34  1  6  0  0  0
 13 14  1  1  0  0  0
 13 15  1  0  0  0  0
 15 16  1  0  0  0  0
 15 49  1  0  0  0  0
 15 50  1  0  0  0  0
 16 17  2  0  0  0  0
 16 51  1  0  0  0  0
 17 22  1  0  0  0  0
 17 18  1  0  0  0  0
 18 19  1  0  0  0  0
 18 33  1  1  0  0  0
 19 20  1  0  0  0  0
 19 52  1  0  0  0  0
 19 53  1  0  0  0  0
 20 21  1  0  0  0  0
 20 54  1  0  0  0  0
 20 55  1  0  0  0  0
 21 27  1  0  0  0  0
 21 22  1  0  0  0  0
 21 30  1  6  0  0  0
 22 23  1  6  0  0  0
 22 24  1  0  0  0  0
 24 25  1  0  0  0  0
 24 56  1  0  0  0  0
 24 57  1  0  0  0  0
 25 26  1  0  0  0  0
 25 28  1  0  0  0  0
 25 29  1  0  0  0  0
 26 27  1  0  0  0  0
 26 58  1  0  0  0  0
 26 59  1  0  0  0  0
 27 60  1  0  0  0  0
 27 61  1  0  0  0  0
 28 62  1  0  0  0  0
 28 63  1  0  0  0  0
 28 64  1  0  0  0  0
 29 65  1  0  0  0  0
 29 66  1  0  0  0  0
 29 67  1  0  0  0  0
 30 31  2  0  0  0  0
 30 32  1  0  0  0  0
 33 68  1  0  0  0  0
 33 69  1  0  0  0  0
 33 70  1  0  0  0  0
 34 71  1  0  0  0  0
 34 72  1  0  0  0  0
 34 73  1  0  0  0  0
 35 74  1  0  0  0  0
 35 75  1  0  0  0  0
 35 76  1  0  0  0  0
 36 77  1  0  0  0  0
 36 78  1  0  0  0  0
 36 79  1  0  0  0  0
 37 80  1  0  0  0  0
M  CHG  1  32  -1
M  END
>  <cansmi>
O[C@H]1CC[C@]2([C@H](C1(C)C)CC[C@@]1([C@@H]2CC=C2[C@@]1(C)CC[C@@]1([C@H]2CC(C)(C)CC1)C(=O)[O-])C)C

>  <HBA2>
3

>  <HBD>
1

>  <logP>
5.8989

>  <TPSA>
60.36

>  <MW>
455.692

$$$$
ZINC04098166
 OpenBabel02121623173D

 37 41  0  0  1  0  0  0  0  0999 V2000
   -1.6685   -0.5271   -2.2952 C   0  0  0  0  0  0  0  0  0  0  0  0
   -0.4727    0.2804   -1.8606 C   0  0  0  0  0  0  0  0  0  0  0  0
   -0.6399    1.3661   -1.1468 C   0  0  0  0  0  0  0  0  0  0  0  0
    0.9154   -0.1610   -2.2470 C   0  0  2  0  0  0  0  0  0  0  0  0
    0.9193   -1.1859   -2.6179 H   0  0  0  0  0  0  0  0  0  0  0  0
    1.9238    0.0325   -1.0841 C   0  0  2  0  0  0  0  0  0  0  0  0
    1.9069   -0.8056   -0.3873 H   0  0  0  0  0  0  0  0  0  0  0  0
    1.5799    1.3539   -0.3928 C   0  0  2  0  0  0  0  0  0  0  0  0
    0.6693    1.2547    0.1979 H   0  0  0  0  0  0  0  0  0  0  0  0
    1.4708    2.5270   -1.3624 C   0  0  2  0  0  0  0  0  0  0  0  0
    1.1234    2.2296   -2.8086 C   0  0  2  0  0  0  0  0  0  0  0  0
    1.5701    0.8205   -3.2608 C   0  0  1  0  0  0  0  0  0  0  0  0
    1.3000    0.6045   -4.2945 H   0  0  0  0  0  0  0  0  0  0  0  0
    3.0535    0.6506   -2.9747 C   0  0  0  0  0  0  0  0  0  0  0  0
    3.9519    0.9083   -3.7404 O   0  0  0  0  0  0  0  0  0  0  0  0
    3.2007    0.1667   -1.7300 O   0  0  0  0  0  0  0  0  0  0  0  0
    1.9514    3.2566   -3.6227 C   0  0  0  0  0  0  0  0  0  0  0  0
    3.2555    3.4242   -2.8128 C   0  0  2  0  0  0  0  0  0  0  0  0
    4.1868    3.0909   -3.2708 H   0  0  0  0  0  0  0  0  0  0  0  0
    2.8997    3.1132   -1.3544 C   0  0  1  0  0  0  0  0  0  0  0  0
    3.2808    4.4276   -1.7916 O   0  0  0  0  0  0  0  0  0  0  0  0
    3.6558    2.2164   -0.4027 C   0  0  0  0  0  0  0  0  0  0  0  0
    4.8439    1.9969   -0.3930 O   0  0  0  0  0  0  0  0  0  0  0  0
    2.7110    1.7008    0.4533 O   0  0  0  0  0  0  0  0  0  0  0  0
   -0.2769    2.4158   -3.0241 O   0  0  0  0  0  0  0  0  0  0  0  0
    0.4882    3.5619   -0.8106 C   0  0  0  0  0  0  0  0  0  0  0  0
   -1.9844   -0.2036   -3.2870 H   0  0  0  0  0  0  0  0  0  0  0  0
   -1.4020   -1.5836   -2.3255 H   0  0  0  0  0  0  0  0  0  0  0  0
   -2.4842   -0.3783   -1.5876 H   0  0  0  0  0  0  0  0  0  0  0  0
   -1.2443    1.3365   -0.2523 H   0  0  0  0  0  0  0  0  0  0  0  0
   -0.1733    2.2908   -1.4529 H   0  0  0  0  0  0  0  0  0  0  0  0
    2.1681    2.8682   -4.6178 H   0  0  0  0  0  0  0  0  0  0  0  0
    1.4204    4.2061   -3.6906 H   0  0  0  0  0  0  0  0  0  0  0  0
   -0.5619    2.2407   -3.9314 H   0  0  0  0  0  0  0  0  0  0  0  0
    1.0314    4.3002   -0.2207 H   0  0  0  0  0  0  0  0  0  0  0  0
   -0.0184    4.0591   -1.6377 H   0  0  0  0  0  0  0  0  0  0  0  0
   -0.2483    3.0636   -0.1801 H   0  0  0  0  0  0  0  0  0  0  0  0
  1  2  1  0  0  0  0
  1 27  1  0  0  0  0
  1 28  1  0  0  0  0
  1 29  1  0  0  0  0
  2  3  2  0  0  0  0
  2  4  1  0  0  0  0
  3 30  1  0  0  0  0
  3 31  1  0  0  0  0
  4  5  1  6  0  0  0
  4 12  1  0  0  0  0
  4  6  1  0  0  0  0
  6  7  1  1  0  0  0
  6 16  1  0  0  0  0
  6  8  1  0  0  0  0
  8  9  1  1  0  0  0
  8 24  1  0  0  0  0
  8 10  1  0  0  0  0
 10 20  1  0  0  0  0
 10 11  1  0  0  0  0
 10 26  1  1  0  0  0
 11 12  1  0  0  0  0
 11 17  1  0  0  0  0
 11 25  1  6  0  0  0
 12 13  1  6  0  0  0
 12 14  1  0  0  0  0
 14 15  2  0  0  0  0
 14 16  1  0  0  0  0
 17 18  1  0  0  0  0
 17 32  1  0  0  0  0
 17 33  1  0  0  0  0
 18 19  1  6  0  0  0
 18 21  1  0  0  0  0
 18 20  1  0  0  0  0
 20 21  1  1  0  0  0
 20 22  1  0  0  0  0
 22 23  2  0  0  0  0
 22 24  1  0  0  0  0
 25 34  1  0  0  0  0
 26 35  1  0  0  0  0
 26 36  1  0  0  0  0
 26 37  1  0  0  0  0
M  END
>  <cansmi>
CC(=C)[C@@H]1[C@H]2OC(=O)[C@@H]1[C@]1([C@]3([C@@H]2OC(=O)[C@]23[C@@H](C1)O2)C)O

>  <HBA2>
6

>  <HBD>
1

>  <logP>
-0.062

>  <TPSA>
85.36

>  <MW>
292.284

$$$$
ZINC38140519
 OpenBabel02121623173D

 81 85  0  0  1  0  0  0  0  0999 V2000
    0.3689    1.4985    0.4398 C   0  0  0  0  0  0  0  0  0  0  0  0
    0.3270   -0.0257    0.3571 C   0  0  2  0  0  0  0  0  0  0  0  0
   -1.1023   -0.4685    0.7375 C   0  0  0  0  0  0  0  0  0  0  0  0
   -1.3904   -0.0861    2.1804 C   0  0  0  0  0  0  0  0  0  0  0  0
   -0.4341   -0.8021    3.1256 C   0  0  1  0  0  0  0  0  0  0  0  0
   -0.6051   -1.8808    3.0713 H   0  0  0  0  0  0  0  0  0  0  0  0
    1.0316   -0.5254    2.7840 C   0  0  0  0  0  0  0  0  0  0  0  0
    1.3006   -0.6997    1.3059 C   0  0  2  0  0  0  0  0  0  0  0  0
    1.1509   -1.8067    1.1092 H   0  0  0  0  0  0  0  0  0  0  0  0
    2.7442   -0.4359    0.9053 C   0  0  1  0  0  0  0  0  0  0  0  0
    3.4146   -0.9852    1.5911 H   0  0  0  0  0  0  0  0  0  0  0  0
    2.9765   -1.0384   -0.4912 C   0  0  0  0  0  0  0  0  0  0  0  0
    2.0240   -0.4606   -1.5295 C   0  0  2  0  0  0  0  0  0  0  0  0
    0.5765   -0.5114   -1.0718 C   0  0  2  0  0  0  0  0  0  0  0  0
    0.2304   -1.5672   -1.1052 H   0  0  0  0  0  0  0  0  0  0  0  0
   -0.2891    0.2667   -2.0649 C   0  0  0  0  0  0  0  0  0  0  0  0
   -0.0508   -0.2734   -3.4484 C   0  0  0  0  0  0  0  0  0  0  0  0
    1.0191   -0.9210   -3.7972 C   0  0  0  0  0  0  0  0  0  0  0  0
    2.1566   -1.2272   -2.8524 C   0  0  1  0  0  0  0  0  0  0  0  0
    3.5087   -0.9671   -3.5102 C   0  0  0  0  0  0  0  0  0  0  0  0
    3.5800   -1.5556   -4.9198 C   0  0  0  0  0  0  0  0  0  0  0  0
    2.4705   -0.9729   -5.7970 C   0  0  2  0  0  0  0  0  0  0  0  0
    1.1283   -1.4340   -5.2210 C   0  0  2  0  0  0  0  0  0  0  0  0
    1.1173   -2.5319   -5.1869 H   0  0  0  0  0  0  0  0  0  0  0  0
   -0.0280   -0.9329   -6.0695 C   0  0  0  0  0  0  0  0  0  0  0  0
    0.1121   -1.3962   -7.5211 C   0  0  0  0  0  0  0  0  0  0  0  0
    1.4676   -1.0043   -8.0963 C   0  0  0  0  0  0  0  0  0  0  0  0
    2.6232   -1.4802   -7.2265 C   0  0  0  0  0  0  0  0  0  0  0  0
   -0.9814   -0.7233   -8.3637 C   0  0  0  0  0  0  0  0  0  0  0  0
   -0.0743   -2.9123   -7.6120 C   0  0  0  0  0  0  0  0  0  0  0  0
    2.5538    0.5276   -5.7852 C   0  0  0  0  0  0  0  0  0  0  0  0
    3.5632    1.0853   -6.1810 O   0  0  0  0  0  0  0  0  0  0  0  0
    1.6120    1.1873   -5.3798 O   0  5  0  0  0  0  0  0  0  0  0  0
    2.0695   -2.7279   -2.5680 C   0  0  0  0  0  0  0  0  0  0  0  0
    2.4372    0.9949   -1.8137 C   0  0  0  0  0  0  0  0  0  0  0  0
    3.1221    0.9257    0.9473 O   0  0  0  0  0  0  0  0  0  0  0  0
    1.8678   -1.5760    3.5562 C   0  0  0  0  0  0  0  0  0  0  0  0
    1.4300    0.8474    3.3181 C   0  0  0  0  0  0  0  0  0  0  0  0
   -0.6863   -0.3745    4.4725 O   0  0  0  0  0  0  0  0  0  0  0  0
    1.3997    1.8394    0.3433 H   0  0  0  0  0  0  0  0  0  0  0  0
   -0.2310    1.9226   -0.3653 H   0  0  0  0  0  0  0  0  0  0  0  0
   -0.0321    1.8214    1.4006 H   0  0  0  0  0  0  0  0  0  0  0  0
   -1.8095    0.0129    0.0639 H   0  0  0  0  0  0  0  0  0  0  0  0
   -1.1652   -1.5514    0.6214 H   0  0  0  0  0  0  0  0  0  0  0  0
   -1.3407    0.9916    2.3239 H   0  0  0  0  0  0  0  0  0  0  0  0
   -2.4171   -0.4017    2.4265 H   0  0  0  0  0  0  0  0  0  0  0  0
    4.0050   -0.8129   -0.7825 H   0  0  0  0  0  0  0  0  0  0  0  0
    2.8708   -2.1132   -0.3873 H   0  0  0  0  0  0  0  0  0  0  0  0
   -1.3434    0.1148   -1.8170 H   0  0  0  0  0  0  0  0  0  0  0  0
   -0.0958    1.3293   -2.0568 H   0  0  0  0  0  0  0  0  0  0  0  0
   -0.8222   -0.1023   -4.1860 H   0  0  0  0  0  0  0  0  0  0  0  0
    3.7773    0.0795   -3.5525 H   0  0  0  0  0  0  0  0  0  0  0  0
    4.2746   -1.4745   -2.8992 H   0  0  0  0  0  0  0  0  0  0  0  0
    4.5402   -1.2935   -5.3699 H   0  0  0  0  0  0  0  0  0  0  0  0
    3.5016   -2.6413   -4.8910 H   0  0  0  0  0  0  0  0  0  0  0  0
   -0.9621   -1.3528   -5.6658 H   0  0  0  0  0  0  0  0  0  0  0  0
   -0.0954    0.1560   -6.0314 H   0  0  0  0  0  0  0  0  0  0  0  0
    1.5674   -1.4500   -9.0953 H   0  0  0  0  0  0  0  0  0  0  0  0
    1.5116    0.0812   -8.2235 H   0  0  0  0  0  0  0  0  0  0  0  0
    3.5651   -1.1017   -7.6477 H   0  0  0  0  0  0  0  0  0  0  0  0
    2.6653   -2.5702   -7.2287 H   0  0  0  0  0  0  0  0  0  0  0  0
   -0.8675    0.3594   -8.3091 H   0  0  0  0  0  0  0  0  0  0  0  0
   -0.8913   -1.0463   -9.4008 H   0  0  0  0  0  0  0  0  0  0  0  0
   -1.9616   -1.0053   -7.9791 H   0  0  0  0  0  0  0  0  0  0  0  0
   -1.0659   -3.1791   -7.2464 H   0  0  0  0  0  0  0  0  0  0  0  0
    0.0277   -3.2294   -8.6498 H   0  0  0  0  0  0  0  0  0  0  0  0
    0.6826   -3.4085   -7.0044 H   0  0  0  0  0  0  0  0  0  0  0  0
    1.1087   -2.9549   -2.1059 H   0  0  0  0  0  0  0  0  0  0  0  0
    2.1628   -3.2808   -3.5027 H   0  0  0  0  0  0  0  0  0  0  0  0
    2.8748   -3.0171   -1.8928 H   0  0  0  0  0  0  0  0  0  0  0  0
    3.4881    1.0246   -2.1016 H   0  0  0  0  0  0  0  0  0  0  0  0
    1.8271    1.3942   -2.6239 H   0  0  0  0  0  0  0  0  0  0  0  0
    2.2890    1.5964   -0.9169 H   0  0  0  0  0  0  0  0  0  0  0  0
    4.0407    1.0870    0.6917 H   0  0  0  0  0  0  0  0  0  0  0  0
    1.5758   -2.5772    3.2392 H   0  0  0  0  0  0  0  0  0  0  0  0
    2.9265   -1.4229    3.3469 H   0  0  0  0  0  0  0  0  0  0  0  0
    1.6895   -1.4672    4.6260 H   0  0  0  0  0  0  0  0  0  0  0  0
    1.3866    0.8402    4.4072 H   0  0  0  0  0  0  0  0  0  0  0  0
    2.4447    1.0820    2.9965 H   0  0  0  0  0  0  0  0  0  0  0  0
    0.7433    1.6008    2.9322 H   0  0  0  0  0  0  0  0  0  0  0  0
   -1.5843   -0.5571    4.7815 H   0  0  0  0  0  0  0  0  0  0  0  0
  1 40  1  0  0  0  0
  1 41  1  0  0  0  0
  1 42  1  0  0  0  0
  2  1  1  1  0  0  0
  2  8  1  0  0  0  0
  2 14  1  0  0  0  0
  2  3  1  0  0  0  0
  3  4  1  0  0  0  0
  3 43  1  0  0  0  0
  3 44  1  0  0  0  0
  4  5  1  0  0  0  0
  4 45  1  0  0  0  0
  4 46  1  0  0  0  0
  5  6  1  6  0  0  0
  5  7  1  0  0  0  0
  5 39  1  0  0  0  0
  7  8  1  0  0  0  0
  7 37  1  0  0  0  0
  7 38  1  0  0  0  0
  8  9  1  6  0  0  0
  8 10  1  0  0  0  0
 10 11  1  1  0  0  0
 10 12  1  0  0  0  0
 10 36  1  0  0  0  0
 12 13  1  0  0  0  0
 12 47  1  0  0  0  0
 12 48  1  0  0  0  0
 13 19  1  0  0  0  0
 13 14  1  0  0  0  0
 13 35  1  6  0  0  0
 14 15  1  6  0  0  0
 14 16  1  0  0  0  0
 16 17  1  0  0  0  0
 16 49  1  0  0  0  0
 16 50  1  0  0  0  0
 17 18  2  0  0  0  0
 17 51  1  0  0  0  0
 18 23  1  0  0  0  0
 18 19  1  0  0  0  0
 19 20  1  0  0  0  0
 19 34  1  1  0  0  0
 20 21  1  0  0  0  0
 20 52  1  0  0  0  0
 20 53  1  0  0  0  0
 21 22  1  0  0  0  0
 21 54  1  0  0  0  0
 21 55  1  0  0  0  0
 22 28  1  0  0  0  0
 22 23  1  0  0  0  0
 22 31  1  1  0  0  0
 23 24  1  1  0  0  0
 23 25  1  0  0  0  0
 25 26  1  0  0  0  0
 25 56  1  0  0  0  0
 25 57  1  0  0  0  0
 26 27  1  0  0  0  0
 26 29  1  0  0  0  0
 26 30  1  0  0  0  0
 27 28  1  0  0  0  0
 27 58  1  0  0  0  0
 27 59  1  0  0  0  0
 28 60  1  0  0  0  0
 28 61  1  0  0  0  0
 29 62  1  0  0  0  0
 29 63  1  0  0  0  0
 29 64  1  0  0  0  0
 30 65  1  0  0  0  0
 30 66  1  0  0  0  0
 30 67  1  0  0  0  0
 31 32  2  0  0  0  0
 31 33  1  0  0  0  0
 34 68  1  0  0  0  0
 34 69  1  0  0  0  0
 34 70  1  0  0  0  0
 35 71  1  0  0  0  0
 35 72  1  0  0  0  0
 35 73  1  0  0  0  0
 36 74  1  0  0  0  0
 37 75  1  0  0  0  0
 37 76  1  0  0  0  0
 37 77  1  0  0  0  0
 38 78  1  0  0  0  0
 38 79  1  0  0  0  0
 38 80  1  0  0  0  0
 39 81  1  0  0  0  0
M  CHG  1  33  -1
M  END
>  <cansmi>
O[C@@H]1C[C@]2(C)[C@@H]([C@@]3([C@@H]1C(C)(C)[C@H](CC3)O)C)CC=C1[C@@]2(C)CC[C@@]2([C@@H]1CC(CC2)(C)C)C(=O)[O-]

>  <HBA2>
4

>  <HBD>
2

>  <logP>
4.8697

>  <TPSA>
80.59

>  <MW>
471.692

$$$$
ZINC38140520
 OpenBabel02121623173D

 81 85  0  0  1  0  0  0  0  0999 V2000
   -0.5326    1.4462   -0.1888 C   0  0  0  0  0  0  0  0  0  0  0  0
   -0.4783   -0.0994   -0.2342 C   0  0  2  0  0  0  0  0  0  0  0  0
   -1.9575   -0.5206   -0.2293 C   0  0  0  0  0  0  0  0  0  0  0  0
   -2.0939   -2.0147    0.0337 C   0  0  0  0  0  0  0  0  0  0  0  0
   -1.5717   -2.2964    1.4400 C   0  0  1  0  0  0  0  0  0  0  0  0
   -1.7128   -3.3547    1.6722 H   0  0  0  0  0  0  0  0  0  0  0  0
   -0.0799   -1.9621    1.5180 C   0  0  0  0  0  0  0  0  0  0  0  0
    0.2440   -0.5734    1.0106 C   0  0  1  0  0  0  0  0  0  0  0  0
   -0.1170    0.1201    1.8279 H   0  0  0  0  0  0  0  0  0  0  0  0
    1.7421   -0.3169    0.9339 C   0  0  1  0  0  0  0  0  0  0  0  0
    2.2354   -0.8587    1.7665 H   0  0  0  0  0  0  0  0  0  0  0  0
    2.4030   -0.7873   -0.3506 C   0  0  0  0  0  0  0  0  0  0  0  0
    1.6726   -0.3835   -1.6200 C   0  0  2  0  0  0  0  0  0  0  0  0
    0.1672   -0.5864   -1.5170 C   0  0  2  0  0  0  0  0  0  0  0  0
   -0.0376   -1.6737   -1.5975 H   0  0  0  0  0  0  0  0  0  0  0  0
   -0.4981    0.0668   -2.7368 C   0  0  0  0  0  0  0  0  0  0  0  0
    0.1076   -0.5193   -3.9840 C   0  0  0  0  0  0  0  0  0  0  0  0
    1.2869   -1.0622   -4.0195 C   0  0  0  0  0  0  0  0  0  0  0  0
    2.1983   -1.1749   -2.8227 C   0  0  1  0  0  0  0  0  0  0  0  0
    3.6206   -0.7651   -3.1837 C   0  0  0  0  0  0  0  0  0  0  0  0
    4.0961   -1.4404   -4.4726 C   0  0  0  0  0  0  0  0  0  0  0  0
    3.1615   -1.0946   -5.6352 C   0  0  2  0  0  0  0  0  0  0  0  0
    1.7779   -1.6609   -5.3241 C   0  0  2  0  0  0  0  0  0  0  0  0
    1.8686   -2.7483   -5.1877 H   0  0  0  0  0  0  0  0  0  0  0  0
    0.8047   -1.3856   -6.4585 C   0  0  0  0  0  0  0  0  0  0  0  0
    1.3188   -1.9784   -7.7704 C   0  0  0  0  0  0  0  0  0  0  0  0
    2.7274   -1.4846   -8.0810 C   0  0  0  0  0  0  0  0  0  0  0  0
    3.6880   -1.7275   -6.9229 C   0  0  0  0  0  0  0  0  0  0  0  0
    1.3034   -3.5067   -7.6979 C   0  0  0  0  0  0  0  0  0  0  0  0
    0.3817   -1.5383   -8.9066 C   0  0  0  0  0  0  0  0  0  0  0  0
    3.0997    0.3994   -5.8013 C   0  0  0  0  0  0  0  0  0  0  0  0
    4.1157    1.0285   -6.0429 O   0  0  0  0  0  0  0  0  0  0  0  0
    2.0335    0.9811   -5.6943 O   0  5  0  0  0  0  0  0  0  0  0  0
    2.2234   -2.6678   -2.4669 C   0  0  0  0  0  0  0  0  0  0  0  0
    1.9851    1.1002   -1.8911 C   0  0  0  0  0  0  0  0  0  0  0  0
    2.0266    1.0683    1.1601 O   0  0  0  0  0  0  0  0  0  0  0  0
    0.6960   -3.0601    0.7899 C   0  0  0  0  0  0  0  0  0  0  0  0
    0.3056   -2.0383    3.0144 C   0  0  0  0  0  0  0  0  0  0  0  0
   -2.2890   -1.5093    2.3921 O   0  0  0  0  0  0  0  0  0  0  0  0
    0.4659    1.8394    0.0020 H   0  0  0  0  0  0  0  0  0  0  0  0
   -0.8959    1.8252   -1.1440 H   0  0  0  0  0  0  0  0  0  0  0  0
   -1.2061    1.7629    0.6076 H   0  0  0  0  0  0  0  0  0  0  0  0
   -2.4744    0.0397    0.5553 H   0  0  0  0  0  0  0  0  0  0  0  0
   -2.4101   -0.2680   -1.1865 H   0  0  0  0  0  0  0  0  0  0  0  0
   -3.1487   -2.2992   -0.0227 H   0  0  0  0  0  0  0  0  0  0  0  0
   -1.5365   -2.5830   -0.7052 H   0  0  0  0  0  0  0  0  0  0  0  0
    3.4044   -0.2945   -0.3889 H   0  0  0  0  0  0  0  0  0  0  0  0
    2.6286   -1.8415   -0.2771 H   0  0  0  0  0  0  0  0  0  0  0  0
   -1.5655   -0.1831   -2.7354 H   0  0  0  0  0  0  0  0  0  0  0  0
   -0.3939    1.1407   -2.7504 H   0  0  0  0  0  0  0  0  0  0  0  0
   -0.4805   -0.4787   -4.8883 H   0  0  0  0  0  0  0  0  0  0  0  0
    3.7480    0.3051   -3.2935 H   0  0  0  0  0  0  0  0  0  0  0  0
    4.2897   -1.0891   -2.3691 H   0  0  0  0  0  0  0  0  0  0  0  0
    5.1002   -1.0755   -4.7134 H   0  0  0  0  0  0  0  0  0  0  0  0
    4.1390   -2.5187   -4.3467 H   0  0  0  0  0  0  0  0  0  0  0  0
   -0.1606   -1.8544   -6.2219 H   0  0  0  0  0  0  0  0  0  0  0  0
    0.6375   -0.3159   -6.5779 H   0  0  0  0  0  0  0  0  0  0  0  0
    3.0979   -2.0221   -8.9651 H   0  0  0  0  0  0  0  0  0  0  0  0
    2.6956   -0.4238   -8.3338 H   0  0  0  0  0  0  0  0  0  0  0  0
    4.6603   -1.2815   -7.1614 H   0  0  0  0  0  0  0  0  0  0  0  0
    3.8331   -2.7976   -6.7678 H   0  0  0  0  0  0  0  0  0  0  0  0
    0.2842   -3.8519   -7.5242 H   0  0  0  0  0  0  0  0  0  0  0  0
    1.6716   -3.9187   -8.6374 H   0  0  0  0  0  0  0  0  0  0  0  0
    1.9435   -3.8380   -6.8802 H   0  0  0  0  0  0  0  0  0  0  0  0
    0.3725   -0.4501   -8.9690 H   0  0  0  0  0  0  0  0  0  0  0  0
    0.7352   -1.9534   -9.8505 H   0  0  0  0  0  0  0  0  0  0  0  0
   -0.6270   -1.8992   -8.7060 H   0  0  0  0  0  0  0  0  0  0  0  0
    1.2394   -2.9731   -2.1113 H   0  0  0  0  0  0  0  0  0  0  0  0
    2.4861   -3.2477   -3.3516 H   0  0  0  0  0  0  0  0  0  0  0  0
    2.9626   -2.8426   -1.6852 H   0  0  0  0  0  0  0  0  0  0  0  0
    3.0607    1.2286   -2.0128 H   0  0  0  0  0  0  0  0  0  0  0  0
    1.4760    1.4184   -2.8009 H   0  0  0  0  0  0  0  0  0  0  0  0
    1.6398    1.7035   -1.0516 H   0  0  0  0  0  0  0  0  0  0  0  0
    2.9676    1.2878    1.1224 H   0  0  0  0  0  0  0  0  0  0  0  0
    0.3760   -3.1019   -0.2512 H   0  0  0  0  0  0  0  0  0  0  0  0
    1.7629   -2.8410    0.8336 H   0  0  0  0  0  0  0  0  0  0  0  0
    0.5024   -4.0201    1.2684 H   0  0  0  0  0  0  0  0  0  0  0  0
    0.1101   -3.0429    3.3893 H   0  0  0  0  0  0  0  0  0  0  0  0
    1.3647   -1.8075    3.1289 H   0  0  0  0  0  0  0  0  0  0  0  0
   -0.2863   -1.3181    3.5792 H   0  0  0  0  0  0  0  0  0  0  0  0
   -3.2408   -1.6798    2.4060 H   0  0  0  0  0  0  0  0  0  0  0  0
  1 40  1  0  0  0  0
  1 41  1  0  0  0  0
  1 42  1  0  0  0  0
  2  1  1  6  0  0  0
  2  8  1  0  0  0  0
  2 14  1  0  0  0  0
  2  3  1  0  0  0  0
  3  4  1  0  0  0  0
  3 43  1  0  0  0  0
  3 44  1  0  0  0  0
  4  5  1  0  0  0  0
  4 45  1  0  0  0  0
  4 46  1  0  0  0  0
  5  6  1  1  0  0  0
  5  7  1  0  0  0  0
  5 39  1  0  0  0  0
  7  8  1  0  0  0  0
  7 37  1  0  0  0  0
  7 38  1  0  0  0  0
  8  9  1  1  0  0  0
  8 10  1  0  0  0  0
 10 11  1  1  0  0  0
 10 12  1  0  0  0  0
 10 36  1  0  0  0  0
 12 13  1  0  0  0  0
 12 47  1  0  0  0  0
 12 48  1  0  0  0  0
 13 19  1  0  0  0  0
 13 14  1  0  0  0  0
 13 35  1  6  0  0  0
 14 15  1  6  0  0  0
 14 16  1  0  0  0  0
 16 17  1  0  0  0  0
 16 49  1  0  0  0  0
 16 50  1  0  0  0  0
 17 18  2  0  0  0  0
 17 51  1  0  0  0  0
 18 23  1  0  0  0  0
 18 19  1  0  0  0  0
 19 20  1  0  0  0  0
 19 34  1  1  0  0  0
 20 21  1  0  0  0  0
 20 52  1  0  0  0  0
 20 53  1  0  0  0  0
 21 22  1  0  0  0  0
 21 54  1  0  0  0  0
 21 55  1  0  0  0  0
 22 28  1  0  0  0  0
 22 23  1  0  0  0  0
 22 31  1  6  0  0  0
 23 24  1  1  0  0  0
 23 25  1  0  0  0  0
 25 26  1  0  0  0  0
 25 56  1  0  0  0  0
 25 57  1  0  0  0  0
 26 27  1  0  0  0  0
 26 29  1  0  0  0  0
 26 30  1  0  0  0  0
 27 28  1  0  0  0  0
 27 58  1  0  0  0  0
 27 59  1  0  0  0  0
 28 60  1  0  0  0  0
 28 61  1  0  0  0  0
 29 62  1  0  0  0  0
 29 63  1  0  0  0  0
 29 64  1  0  0  0  0
 30 65  1  0  0  0  0
 30 66  1  0  0  0  0
 30 67  1  0  0  0  0
 31 32  2  0  0  0  0
 31 33  1  0  0  0  0
 34 68  1  0  0  0  0
 34 69  1  0  0  0  0
 34 70  1  0  0  0  0
 35 71  1  0  0  0  0
 35 72  1  0  0  0  0
 35 73  1  0  0  0  0
 36 74  1  0  0  0  0
 37 75  1  0  0  0  0
 37 76  1  0  0  0  0
 37 77  1  0  0  0  0
 38 78  1  0  0  0  0
 38 79  1  0  0  0  0
 38 80  1  0  0  0  0
 39 81  1  0  0  0  0
M  CHG  1  33  -1
M  END
>  <cansmi>
O[C@@H]1C[C@]2(C)[C@@H]([C@@]3([C@H]1C(C)(C)[C@H](CC3)O)C)CC=C1[C@@]2(C)CC[C@@]2([C@@H]1CC(CC2)(C)C)C(=O)[O-]

>  <HBA2>
4

>  <HBD>
2

>  <logP>
4.8697

>  <TPSA>
80.59

>  <MW>
471.692

$$$$
ZINC38140521
 OpenBabel02121623173D

 81 85  0  0  1  0  0  0  0  0999 V2000
   -0.5821    1.5803    0.1403 C   0  0  0  0  0  0  0  0  0  0  0  0
   -0.4838    0.0617    0.0838 C   0  0  2  0  0  0  0  0  0  0  0  0
   -1.9012   -0.4851    0.3684 C   0  0  0  0  0  0  0  0  0  0  0  0
   -2.3368   -0.0512    1.7665 C   0  0  0  0  0  0  0  0  0  0  0  0
   -1.4173   -0.6675    2.8126 C   0  0  1  0  0  0  0  0  0  0  0  0
   -1.5340   -1.7561    2.8001 H   0  0  0  0  0  0  0  0  0  0  0  0
    0.0548   -0.3281    2.5628 C   0  0  0  0  0  0  0  0  0  0  0  0
    0.4478   -0.5445    1.1165 C   0  0  2  0  0  0  0  0  0  0  0  0
    0.3420   -1.6624    0.9721 H   0  0  0  0  0  0  0  0  0  0  0  0
    1.9070   -0.2640    0.8186 C   0  0  1  0  0  0  0  0  0  0  0  0
    2.5350   -0.8406    1.5262 H   0  0  0  0  0  0  0  0  0  0  0  0
    2.2835   -0.7739   -0.5795 C   0  0  0  0  0  0  0  0  0  0  0  0
    1.3858   -0.1940   -1.6691 C   0  0  2  0  0  0  0  0  0  0  0  0
   -0.0798   -0.4116   -1.3202 C   0  0  1  0  0  0  0  0  0  0  0  0
   -0.7074    0.1023   -2.0538 H   0  0  0  0  0  0  0  0  0  0  0  0
   -0.3904   -1.9174   -1.3747 C   0  0  0  0  0  0  0  0  0  0  0  0
   -0.0622   -2.4465   -2.7401 C   0  0  0  0  0  0  0  0  0  0  0  0
    0.8788   -1.9309   -3.4655 C   0  0  0  0  0  0  0  0  0  0  0  0
    1.7312   -0.7674   -3.0424 C   0  0  1  0  0  0  0  0  0  0  0  0
    1.6804    0.3037   -4.1345 C   0  0  0  0  0  0  0  0  0  0  0  0
    1.9251   -0.2807   -5.5283 C   0  0  0  0  0  0  0  0  0  0  0  0
    0.9425   -1.4028   -5.8559 C   0  0  2  0  0  0  0  0  0  0  0  0
    1.1443   -2.5280   -4.8378 C   0  0  2  0  0  0  0  0  0  0  0  0
    2.1797   -2.8764   -4.8843 H   0  0  0  0  0  0  0  0  0  0  0  0
    0.2017   -3.6854   -5.1247 C   0  0  0  0  0  0  0  0  0  0  0  0
    0.4119   -4.2253   -6.5389 C   0  0  0  0  0  0  0  0  0  0  0  0
    0.2952   -3.1147   -7.5771 C   0  0  0  0  0  0  0  0  0  0  0  0
    1.2118   -1.9389   -7.2605 C   0  0  0  0  0  0  0  0  0  0  0  0
   -0.6698   -5.2793   -6.8249 C   0  0  0  0  0  0  0  0  0  0  0  0
    1.7817   -4.8988   -6.6447 C   0  0  0  0  0  0  0  0  0  0  0  0
   -0.4620   -0.8675   -5.7826 C   0  0  0  0  0  0  0  0  0  0  0  0
   -0.8035    0.0497   -6.5096 O   0  0  0  0  0  0  0  0  0  0  0  0
   -1.2584   -1.3510   -4.9962 O   0  5  0  0  0  0  0  0  0  0  0  0
    3.1777   -1.2714   -3.0013 C   0  0  0  0  0  0  0  0  0  0  0  0
    1.6925    1.3116   -1.7613 C   0  0  0  0  0  0  0  0  0  0  0  0
    2.2624    1.1032    0.9699 O   0  0  0  0  0  0  0  0  0  0  0  0
    0.8741   -1.3076    3.4397 C   0  0  0  0  0  0  0  0  0  0  0  0
    0.3443    1.0800    3.0778 C   0  0  0  0  0  0  0  0  0  0  0  0
   -1.7891   -0.1874    4.1106 O   0  0  0  0  0  0  0  0  0  0  0  0
    0.4180    2.0065    0.2193 H   0  0  0  0  0  0  0  0  0  0  0  0
   -1.0628    1.9473   -0.7666 H   0  0  0  0  0  0  0  0  0  0  0  0
   -1.1719    1.8742    1.0086 H   0  0  0  0  0  0  0  0  0  0  0  0
   -2.5874   -0.1006   -0.3779 H   0  0  0  0  0  0  0  0  0  0  0  0
   -1.8737   -1.5736    0.3420 H   0  0  0  0  0  0  0  0  0  0  0  0
   -2.3684    1.0270    1.8631 H   0  0  0  0  0  0  0  0  0  0  0  0
   -3.3584   -0.4265    1.9380 H   0  0  0  0  0  0  0  0  0  0  0  0
    3.3224   -0.4563   -0.7328 H   0  0  0  0  0  0  0  0  0  0  0  0
    2.2247   -1.8611   -0.5792 H   0  0  0  0  0  0  0  0  0  0  0  0
    0.1904   -2.4465   -0.6235 H   0  0  0  0  0  0  0  0  0  0  0  0
   -1.4578   -2.0756   -1.1983 H   0  0  0  0  0  0  0  0  0  0  0  0
   -0.6329   -3.2843   -3.1160 H   0  0  0  0  0  0  0  0  0  0  0  0
    0.7303    0.8274   -4.1153 H   0  0  0  0  0  0  0  0  0  0  0  0
    2.5018    1.0227   -3.9850 H   0  0  0  0  0  0  0  0  0  0  0  0
    1.7988    0.5181   -6.2697 H   0  0  0  0  0  0  0  0  0  0  0  0
    2.9448   -0.6546   -5.6084 H   0  0  0  0  0  0  0  0  0  0  0  0
    0.4015   -4.4945   -4.4091 H   0  0  0  0  0  0  0  0  0  0  0  0
   -0.8376   -3.3803   -5.0023 H   0  0  0  0  0  0  0  0  0  0  0  0
    0.5722   -3.5238   -8.5586 H   0  0  0  0  0  0  0  0  0  0  0  0
   -0.7416   -2.7825   -7.6432 H   0  0  0  0  0  0  0  0  0  0  0  0
    1.0325   -1.1360   -7.9846 H   0  0  0  0  0  0  0  0  0  0  0  0
    2.2570   -2.2410   -7.3399 H   0  0  0  0  0  0  0  0  0  0  0  0
   -1.6550   -4.8198   -6.7450 H   0  0  0  0  0  0  0  0  0  0  0  0
   -0.5342   -5.6753   -7.8313 H   0  0  0  0  0  0  0  0  0  0  0  0
   -0.5874   -6.0903   -6.1012 H   0  0  0  0  0  0  0  0  0  0  0  0
    1.8369   -5.7237   -5.9344 H   0  0  0  0  0  0  0  0  0  0  0  0
    1.9219   -5.2802   -7.6562 H   0  0  0  0  0  0  0  0  0  0  0  0
    2.5622   -4.1721   -6.4190 H   0  0  0  0  0  0  0  0  0  0  0  0
    3.2715   -2.0442   -2.2384 H   0  0  0  0  0  0  0  0  0  0  0  0
    3.4459   -1.6857   -3.9731 H   0  0  0  0  0  0  0  0  0  0  0  0
    3.8445   -0.4427   -2.7630 H   0  0  0  0  0  0  0  0  0  0  0  0
    2.6997    1.4540   -2.1527 H   0  0  0  0  0  0  0  0  0  0  0  0
    0.9732    1.7888   -2.4269 H   0  0  0  0  0  0  0  0  0  0  0  0
    1.6216    1.7582   -0.7695 H   0  0  0  0  0  0  0  0  0  0  0  0
    3.1921    1.2910    0.7817 H   0  0  0  0  0  0  0  0  0  0  0  0
    0.6510   -2.3330    3.1446 H   0  0  0  0  0  0  0  0  0  0  0  0
    1.9381   -1.1138    3.3039 H   0  0  0  0  0  0  0  0  0  0  0  0
    0.6096   -1.1654    4.4875 H   0  0  0  0  0  0  0  0  0  0  0  0
    0.0787    1.1427    4.1331 H   0  0  0  0  0  0  0  0  0  0  0  0
    1.4048    1.3004    2.9564 H   0  0  0  0  0  0  0  0  0  0  0  0
   -0.2441    1.8021    2.5116 H   0  0  0  0  0  0  0  0  0  0  0  0
   -2.6972   -0.4022    4.3641 H   0  0  0  0  0  0  0  0  0  0  0  0
  1 40  1  0  0  0  0
  1 41  1  0  0  0  0
  1 42  1  0  0  0  0
  2  1  1  1  0  0  0
  2  8  1  0  0  0  0
  2 14  1  0  0  0  0
  2  3  1  0  0  0  0
  3  4  1  0  0  0  0
  3 43  1  0  0  0  0
  3 44  1  0  0  0  0
  4  5  1  0  0  0  0
  4 45  1  0  0  0  0
  4 46  1  0  0  0  0
  5  6  1  6  0  0  0
  5  7  1  0  0  0  0
  5 39  1  0  0  0  0
  7  8  1  0  0  0  0
  7 37  1  0  0  0  0
  7 38  1  0  0  0  0
  8  9  1  6  0  0  0
  8 10  1  0  0  0  0
 10 11  1  1  0  0  0
 10 12  1  0  0  0  0
 10 36  1  0  0  0  0
 12 13  1  0  0  0  0
 12 47  1  0  0  0  0
 12 48  1  0  0  0  0
 13 19  1  0  0  0  0
 13 14  1  0  0  0  0
 13 35  1  6  0  0  0
 14 15  1  6  0  0  0
 14 16  1  0  0  0  0
 16 17  1  0  0  0  0
 16 49  1  0  0  0  0
 16 50  1  0  0  0  0
 17 18  2  0  0  0  0
 17 51  1  0  0  0  0
 18 23  1  0  0  0  0
 18 19  1  0  0  0  0
 19 20  1  0  0  0  0
 19 34  1  1  0  0  0
 20 21  1  0  0  0  0
 20 52  1  0  0  0  0
 20 53  1  0  0  0  0
 21 22  1  0  0  0  0
 21 54  1  0  0  0  0
 21 55  1  0  0  0  0
 22 28  1  0  0  0  0
 22 23  1  0  0  0  0
 22 31  1  1  0  0  0
 23 24  1  6  0  0  0
 23 25  1  0  0  0  0
 25 26  1  0  0  0  0
 25 56  1  0  0  0  0
 25 57  1  0  0  0  0
 26 27  1  0  0  0  0
 26 29  1  0  0  0  0
 26 30  1  0  0  0  0
 27 28  1  0  0  0  0
 27 58  1  0  0  0  0
 27 59  1  0  0  0  0
 28 60  1  0  0  0  0
 28 61  1  0  0  0  0
 29 62  1  0  0  0  0
 29 63  1  0  0  0  0
 29 64  1  0  0  0  0
 30 65  1  0  0  0  0
 30 66  1  0  0  0  0
 30 67  1  0  0  0  0
 31 32  2  0  0  0  0
 31 33  1  0  0  0  0
 34 68  1  0  0  0  0
 34 69  1  0  0  0  0
 34 70  1  0  0  0  0
 35 71  1  0  0  0  0
 35 72  1  0  0  0  0
 35 73  1  0  0  0  0
 36 74  1  0  0  0  0
 37 75  1  0  0  0  0
 37 76  1  0  0  0  0
 37 77  1  0  0  0  0
 38 78  1  0  0  0  0
 38 79  1  0  0  0  0
 38 80  1  0  0  0  0
 39 81  1  0  0  0  0
M  CHG  1  33  -1
M  END
>  <cansmi>
O[C@@H]1C[C@]2(C)[C@H]([C@@]3([C@@H]1C(C)(C)[C@H](CC3)O)C)CC=C1[C@@]2(C)CC[C@@]2([C@@H]1CC(CC2)(C)C)C(=O)[O-]

>  <HBA2>
4

>  <HBD>
2

>  <logP>
4.8697

>  <TPSA>
80.59

>  <MW>
471.692

$$$$
ZINC38140522
 OpenBabel02121623173D

 81 85  0  0  1  0  0  0  0  0999 V2000
    0.7166    1.7875    0.0188 C   0  0  0  0  0  0  0  0  0  0  0  0
    0.5925    0.2396   -0.0963 C   0  0  2  0  0  0  0  0  0  0  0  0
   -0.9156    0.0459   -0.3131 C   0  0  0  0  0  0  0  0  0  0  0  0
   -1.4102   -1.3208    0.1258 C   0  0  0  0  0  0  0  0  0  0  0  0
   -1.1410   -1.4718    1.6220 C   0  0  1  0  0  0  0  0  0  0  0  0
   -1.5682   -2.4145    1.9709 H   0  0  0  0  0  0  0  0  0  0  0  0
    0.3682   -1.4873    1.8531 C   0  0  0  0  0  0  0  0  0  0  0  0
    1.1036   -0.3452    1.1884 C   0  0  1  0  0  0  0  0  0  0  0  0
    0.9653    0.5123    1.9363 H   0  0  0  0  0  0  0  0  0  0  0  0
    2.6087   -0.5593    1.2294 C   0  0  1  0  0  0  0  0  0  0  0  0
    2.8505   -1.2798    2.0380 H   0  0  0  0  0  0  0  0  0  0  0  0
    3.1987   -1.1236   -0.0559 C   0  0  0  0  0  0  0  0  0  0  0  0
    2.8151   -0.3065   -1.2862 C   0  0  2  0  0  0  0  0  0  0  0  0
    1.2997   -0.2105   -1.3722 C   0  0  1  0  0  0  0  0  0  0  0  0
    1.0544    0.5257   -2.1580 H   0  0  0  0  0  0  0  0  0  0  0  0
    0.6864   -1.5527   -1.7847 C   0  0  0  0  0  0  0  0  0  0  0  0
    1.3427   -2.0803   -3.0247 C   0  0  0  0  0  0  0  0  0  0  0  0
    2.5545   -1.7758   -3.3527 C   0  0  0  0  0  0  0  0  0  0  0  0
    3.4430   -0.8597   -2.5567 C   0  0  1  0  0  0  0  0  0  0  0  0
    3.9441    0.2498   -3.4862 C   0  0  0  0  0  0  0  0  0  0  0  0
    4.5042   -0.3042   -4.7994 C   0  0  0  0  0  0  0  0  0  0  0  0
    3.4977   -1.1862   -5.5328 C   0  0  2  0  0  0  0  0  0  0  0  0
    3.1321   -2.3661   -4.6280 C   0  0  2  0  0  0  0  0  0  0  0  0
    4.0357   -2.9359   -4.3884 H   0  0  0  0  0  0  0  0  0  0  0  0
    2.1195   -3.2703   -5.3159 C   0  0  0  0  0  0  0  0  0  0  0  0
    2.6948   -3.8130   -6.6251 C   0  0  0  0  0  0  0  0  0  0  0  0
    3.1495   -2.6728   -7.5305 C   0  0  0  0  0  0  0  0  0  0  0  0
    4.1115   -1.7231   -6.8253 C   0  0  0  0  0  0  0  0  0  0  0  0
    3.8680   -4.7507   -6.3324 C   0  0  0  0  0  0  0  0  0  0  0  0
    1.5978   -4.6138   -7.3455 C   0  0  0  0  0  0  0  0  0  0  0  0
    2.2761   -0.3688   -5.8570 C   0  0  0  0  0  0  0  0  0  0  0  0
    2.3750    0.6231   -6.5590 O   0  0  0  0  0  0  0  0  0  0  0  0
    1.1877   -0.6986   -5.4176 O   0  5  0  0  0  0  0  0  0  0  0  0
    4.6800   -1.6803   -2.1724 C   0  0  0  0  0  0  0  0  0  0  0  0
    3.4158    1.1013   -1.1037 C   0  0  0  0  0  0  0  0  0  0  0  0
    3.2706    0.6520    1.6115 O   0  0  0  0  0  0  0  0  0  0  0  0
    0.9168   -2.8571    1.4460 C   0  0  0  0  0  0  0  0  0  0  0  0
    0.5716   -1.3627    3.3845 C   0  0  0  0  0  0  0  0  0  0  0  0
   -1.7336   -0.3836    2.3326 O   0  0  0  0  0  0  0  0  0  0  0  0
    1.7272    2.0486    0.3328 H   0  0  0  0  0  0  0  0  0  0  0  0
    0.5083    2.2417   -0.9499 H   0  0  0  0  0  0  0  0  0  0  0  0
    0.0011    2.1556    0.7541 H   0  0  0  0  0  0  0  0  0  0  0  0
   -1.4395    0.8192    0.2637 H   0  0  0  0  0  0  0  0  0  0  0  0
   -1.1442    0.2078   -1.3690 H   0  0  0  0  0  0  0  0  0  0  0  0
   -2.4930   -1.3837   -0.0406 H   0  0  0  0  0  0  0  0  0  0  0  0
   -0.9386   -2.1194   -0.4287 H   0  0  0  0  0  0  0  0  0  0  0  0
    4.2919   -1.0844    0.0953 H   0  0  0  0  0  0  0  0  0  0  0  0
    2.9064   -2.1605   -0.1888 H   0  0  0  0  0  0  0  0  0  0  0  0
   -0.3768   -1.4044   -2.0017 H   0  0  0  0  0  0  0  0  0  0  0  0
    0.7982   -2.2811   -0.9900 H   0  0  0  0  0  0  0  0  0  0  0  0
    0.7751   -2.7540   -3.6511 H   0  0  0  0  0  0  0  0  0  0  0  0
    3.1508    0.9629   -3.6964 H   0  0  0  0  0  0  0  0  0  0  0  0
    4.7916    0.7710   -3.0187 H   0  0  0  0  0  0  0  0  0  0  0  0
    4.7550    0.5448   -5.4540 H   0  0  0  0  0  0  0  0  0  0  0  0
    5.4202   -0.8614   -4.6199 H   0  0  0  0  0  0  0  0  0  0  0  0
    1.8813   -4.1117   -4.6543 H   0  0  0  0  0  0  0  0  0  0  0  0
    1.1961   -2.7297   -5.5207 H   0  0  0  0  0  0  0  0  0  0  0  0
    3.6568   -3.1061   -8.4038 H   0  0  0  0  0  0  0  0  0  0  0  0
    2.2772   -2.1312   -7.8947 H   0  0  0  0  0  0  0  0  0  0  0  0
    4.3363   -0.8804   -7.4852 H   0  0  0  0  0  0  0  0  0  0  0  0
    5.0469   -2.2376   -6.5931 H   0  0  0  0  0  0  0  0  0  0  0  0
    3.5232   -5.5838   -5.7198 H   0  0  0  0  0  0  0  0  0  0  0  0
    4.2711   -5.1321   -7.2705 H   0  0  0  0  0  0  0  0  0  0  0  0
    4.6454   -4.2044   -5.7983 H   0  0  0  0  0  0  0  0  0  0  0  0
    0.7496   -3.9618   -7.5540 H   0  0  0  0  0  0  0  0  0  0  0  0
    1.9916   -5.0084   -8.2821 H   0  0  0  0  0  0  0  0  0  0  0  0
    1.2743   -5.4390   -6.7110 H   0  0  0  0  0  0  0  0  0  0  0  0
    4.3834   -2.4996   -1.5175 H   0  0  0  0  0  0  0  0  0  0  0  0
    5.1423   -2.0842   -3.0731 H   0  0  0  0  0  0  0  0  0  0  0  0
    5.3937   -1.0404   -1.6534 H   0  0  0  0  0  0  0  0  0  0  0  0
    4.5029    1.0420   -1.1563 H   0  0  0  0  0  0  0  0  0  0  0  0
    3.0492    1.7578   -1.8928 H   0  0  0  0  0  0  0  0  0  0  0  0
    3.1201    1.4995   -0.1331 H   0  0  0  0  0  0  0  0  0  0  0  0
    4.2337    0.5771    1.6551 H   0  0  0  0  0  0  0  0  0  0  0  0
    0.5983   -3.0886    0.4296 H   0  0  0  0  0  0  0  0  0  0  0  0
    2.0058   -2.8402    1.4905 H   0  0  0  0  0  0  0  0  0  0  0  0
    0.5370   -3.6179    2.1280 H   0  0  0  0  0  0  0  0  0  0  0  0
    0.0895   -2.2028    3.8845 H   0  0  0  0  0  0  0  0  0  0  0  0
    1.6377   -1.3683    3.6111 H   0  0  0  0  0  0  0  0  0  0  0  0
    0.1305   -0.4296    3.7348 H   0  0  0  0  0  0  0  0  0  0  0  0
   -2.6922   -0.3180    2.2234 H   0  0  0  0  0  0  0  0  0  0  0  0
  1 40  1  0  0  0  0
  1 41  1  0  0  0  0
  1 42  1  0  0  0  0
  2  1  1  1  0  0  0
  2  8  1  0  0  0  0
  2 14  1  0  0  0  0
  2  3  1  0  0  0  0
  3  4  1  0  0  0  0
  3 43  1  0  0  0  0
  3 44  1  0  0  0  0
  4  5  1  0  0  0  0
  4 45  1  0  0  0  0
  4 46  1  0  0  0  0
  5  6  1  1  0  0  0
  5  7  1  0  0  0  0
  5 39  1  0  0  0  0
  7  8  1  0  0  0  0
  7 37  1  0  0  0  0
  7 38  1  0  0  0  0
  8  9  1  1  0  0  0
  8 10  1  0  0  0  0
 10 11  1  1  0  0  0
 10 12  1  0  0  0  0
 10 36  1  0  0  0  0
 12 13  1  0  0  0  0
 12 47  1  0  0  0  0
 12 48  1  0  0  0  0
 13 19  1  0  0  0  0
 13 14  1  0  0  0  0
 13 35  1  1  0  0  0
 14 15  1  6  0  0  0
 14 16  1  0  0  0  0
 16 17  1  0  0  0  0
 16 49  1  0  0  0  0
 16 50  1  0  0  0  0
 17 18  2  0  0  0  0
 17 51  1  0  0  0  0
 18 23  1  0  0  0  0
 18 19  1  0  0  0  0
 19 20  1  0  0  0  0
 19 34  1  1  0  0  0
 20 21  1  0  0  0  0
 20 52  1  0  0  0  0
 20 53  1  0  0  0  0
 21 22  1  0  0  0  0
 21 54  1  0  0  0  0
 21 55  1  0  0  0  0
 22 28  1  0  0  0  0
 22 23  1  0  0  0  0
 22 31  1  6  0  0  0
 23 24  1  1  0  0  0
 23 25  1  0  0  0  0
 25 26  1  0  0  0  0
 25 56  1  0  0  0  0
 25 57  1  0  0  0  0
 26 27  1  0  0  0  0
 26 29  1  0  0  0  0
 26 30  1  0  0  0  0
 27 28  1  0  0  0  0
 27 58  1  0  0  0  0
 27 59  1  0  0  0  0
 28 60  1  0  0  0  0
 28 61  1  0  0  0  0
 29 62  1  0  0  0  0
 29 63  1  0  0  0  0
 29 64  1  0  0  0  0
 30 65  1  0  0  0  0
 30 66  1  0  0  0  0
 30 67  1  0  0  0  0
 31 32  2  0  0  0  0
 31 33  1  0  0  0  0
 34 68  1  0  0  0  0
 34 69  1  0  0  0  0
 34 70  1  0  0  0  0
 35 71  1  0  0  0  0
 35 72  1  0  0  0  0
 35 73  1  0  0  0  0
 36 74  1  0  0  0  0
 37 75  1  0  0  0  0
 37 76  1  0  0  0  0
 37 77  1  0  0  0  0
 38 78  1  0  0  0  0
 38 79  1  0  0  0  0
 38 80  1  0  0  0  0
 39 81  1  0  0  0  0
M  CHG  1  33  -1
M  END
>  <cansmi>
O[C@@H]1C[C@]2(C)[C@H]([C@@]3([C@H]1C(C)(C)[C@H](CC3)O)C)CC=C1[C@@]2(C)CC[C@@]2([C@@H]1CC(CC2)(C)C)C(=O)[O-]

>  <HBA2>
4

>  <HBD>
2

>  <logP>
4.8697

>  <TPSA>
80.59

>  <MW>
471.692

$$$$
ZINC03860720
 OpenBabel02121623173D

 21 21  0  0  1  0  0  0  0  0999 V2000
   -0.0183    1.4968    0.0103 C   0  0  0  0  0  0  0  0  0  0  0  0
    1.4110    2.0429   -0.0004 C   0  0  2  0  0  0  0  0  0  0  0  0
    1.8696    1.8495   -0.9702 H   0  0  0  0  0  0  0  0  0  0  0  0
    2.2116    1.3338    1.0987 C   0  0  1  0  0  0  0  0  0  0  0  0
    1.6717    1.3968    2.0435 H   0  0  0  0  0  0  0  0  0  0  0  0
    2.3856   -0.1340    0.7030 C   0  0  1  0  0  0  0  0  0  0  0  0
    2.7935   -0.6898    1.5472 H   0  0  0  0  0  0  0  0  0  0  0  0
    1.0621   -0.7239    0.3117 C   0  0  0  0  0  0  0  0  0  0  0  0
    0.0021   -0.0041    0.0020 C   0  0  0  0  0  0  0  0  0  0  0  0
   -1.2282   -0.7103   -0.3721 C   0  0  0  0  0  0  0  0  0  0  0  0
   -1.2500   -1.9337   -0.3903 O   0  0  0  0  0  0  0  0  0  0  0  0
   -2.2326   -0.0759   -0.6659 O   0  5  0  0  0  0  0  0  0  0  0  0
    3.2866   -0.2229   -0.4026 O   0  0  0  0  0  0  0  0  0  0  0  0
    3.4921    1.9532    1.2353 O   0  0  0  0  0  0  0  0  0  0  0  0
    1.3891    3.4499    0.2482 O   0  0  0  0  0  0  0  0  0  0  0  0
   -0.5320    1.8463    0.9059 H   0  0  0  0  0  0  0  0  0  0  0  0
   -0.5489    1.8558   -0.8715 H   0  0  0  0  0  0  0  0  0  0  0  0
    0.9732   -1.7999    0.2817 H   0  0  0  0  0  0  0  0  0  0  0  0
    3.4453   -1.1263   -0.7088 H   0  0  0  0  0  0  0  0  0  0  0  0
    4.0519    1.5534    1.9150 H   0  0  0  0  0  0  0  0  0  0  0  0
    0.8866    3.9568   -0.4042 H   0  0  0  0  0  0  0  0  0  0  0  0
  1  9  1  0  0  0  0
  1  2  1  0  0  0  0
  1 16  1  0  0  0  0
  1 17  1  0  0  0  0
  2  3  1  6  0  0  0
  2  4  1  0  0  0  0
  2 15  1  0  0  0  0
  4  5  1  1  0  0  0
  4  6  1  0  0  0  0
  4 14  1  0  0  0  0
  6  7  1  1  0  0  0
  6  8  1  0  0  0  0
  6 13  1  0  0  0  0
  8  9  2  0  0  0  0
  8 18  1  0  0  0  0
  9 10  1  0  0  0  0
 10 11  2  0  0  0  0
 10 12  1  0  0  0  0
 13 19  1  0  0  0  0
 14 20  1  0  0  0  0
 15 21  1  0  0  0  0
M  CHG  1  12  -1
M  END
>  <cansmi>
O[C@@H]1CC(=C[C@H]([C@H]1O)O)C(=O)[O-]

>  <HBA2>
5

>  <HBD>
3

>  <logP>
-2.8509

>  <TPSA>
100.82

>  <MW>
173.143

$$$$
ZINC06932857
 OpenBabel02121623173D

 47 48  0  0  1  0  0  0  0  0999 V2000
    3.9349    4.9787   -1.9325 C   0  0  0  0  0  0  0  0  0  0  0  0
    3.2565    3.7558   -1.3118 C   0  0  1  0  0  0  0  0  0  0  0  0
    4.0140    3.0263   -1.0251 H   0  0  0  0  0  0  0  0  0  0  0  0
    2.4659    4.1845   -0.0729 C   0  0  1  0  0  0  0  0  0  0  0  0
    3.1356    4.6706    0.6365 H   0  0  0  0  0  0  0  0  0  0  0  0
    1.3651    5.1640   -0.4914 C   0  0  1  0  0  0  0  0  0  0  0  0
    1.8169    6.0622   -0.9124 H   0  0  0  0  0  0  0  0  0  0  0  0
    0.4769    4.4943   -1.5465 C   0  0  1  0  0  0  0  0  0  0  0  0
   -0.2766    5.2022   -1.8916 H   0  0  0  0  0  0  0  0  0  0  0  0
    1.3444    4.0537   -2.7284 C   0  0  1  0  0  0  0  0  0  0  0  0
    1.8025    4.9288   -3.1893 H   0  0  0  0  0  0  0  0  0  0  0  0
    2.3666    3.1697   -2.2639 O   0  0  0  0  0  0  0  0  0  0  0  0
    0.5318    3.3787   -3.6908 O   0  0  0  0  0  0  0  0  0  0  0  0
    1.1869    3.1369   -4.9375 C   0  0  2  0  0  0  0  0  0  0  0  0
    2.2666    3.1394   -4.7881 H   0  0  0  0  0  0  0  0  0  0  0  0
    0.8060    4.2333   -5.9370 C   0  0  1  0  0  0  0  0  0  0  0  0
    1.3451    4.0780   -6.8716 H   0  0  0  0  0  0  0  0  0  0  0  0
   -0.7023    4.1705   -6.1968 C   0  0  1  0  0  0  0  0  0  0  0  0
   -0.9737    4.9121   -6.9481 H   0  0  0  0  0  0  0  0  0  0  0  0
   -1.0675    2.7720   -6.7013 C   0  0  1  0  0  0  0  0  0  0  0  0
   -0.5608    2.5832   -7.6478 H   0  0  0  0  0  0  0  0  0  0  0  0
   -0.6584    1.7980   -5.7390 O   0  0  0  0  0  0  0  0  0  0  0  0
    0.7500    1.7776   -5.4898 C   0  0  2  0  0  0  0  0  0  0  0  0
    1.2805    1.5758   -6.4204 H   0  0  0  0  0  0  0  0  0  0  0  0
    1.0528    0.7564   -4.5372 O   0  0  0  0  0  0  0  0  0  0  0  0
    0.8947   -0.5721   -5.0392 C   0  0  0  0  0  0  0  0  0  0  0  0
   -2.5811    2.6825   -6.9061 C   0  0  0  0  0  0  0  0  0  0  0  0
   -2.9094    1.4185   -7.4863 O   0  0  0  0  0  0  0  0  0  0  0  0
   -1.4075    4.4397   -4.9835 O   0  0  0  0  0  0  0  0  0  0  0  0
    1.1451    5.5119   -5.3964 O   0  0  0  0  0  0  0  0  0  0  0  0
   -0.1660    3.3535   -0.9745 O   0  0  0  0  0  0  0  0  0  0  0  0
    0.5768    5.5126    0.6484 O   0  0  0  0  0  0  0  0  0  0  0  0
    1.8756    3.0354    0.5381 O   0  0  0  0  0  0  0  0  0  0  0  0
    4.6129    5.4261   -1.2057 H   0  0  0  0  0  0  0  0  0  0  0  0
    4.4978    4.6733   -2.8145 H   0  0  0  0  0  0  0  0  0  0  0  0
    3.1773    5.7079   -2.2195 H   0  0  0  0  0  0  0  0  0  0  0  0
   -0.1384   -0.7213   -5.3532 H   0  0  0  0  0  0  0  0  0  0  0  0
    1.5583   -0.7200   -5.8911 H   0  0  0  0  0  0  0  0  0  0  0  0
    1.1434   -1.2884   -4.2562 H   0  0  0  0  0  0  0  0  0  0  0  0
   -3.0844    2.7826   -5.9444 H   0  0  0  0  0  0  0  0  0  0  0  0
   -2.9057    3.4828   -7.5711 H   0  0  0  0  0  0  0  0  0  0  0  0
   -3.8549    1.2921   -7.6446 H   0  0  0  0  0  0  0  0  0  0  0  0
   -2.3699    4.4163   -5.0744 H   0  0  0  0  0  0  0  0  0  0  0  0
    0.9309    6.2542   -5.9779 H   0  0  0  0  0  0  0  0  0  0  0  0
   -0.7417    2.8774   -1.5885 H   0  0  0  0  0  0  0  0  0  0  0  0
   -0.1409    6.1315    0.4559 H   0  0  0  0  0  0  0  0  0  0  0  0
    2.5160    2.3708    0.8267 H   0  0  0  0  0  0  0  0  0  0  0  0
  1  2  1  0  0  0  0
  1 34  1  0  0  0  0
  1 35  1  0  0  0  0
  1 36  1  0  0  0  0
  2  3  1  1  0  0  0
  2 12  1  0  0  0  0
  2  4  1  0  0  0  0
  4  5  1  1  0  0  0
  4  6  1  0  0  0  0
  4 33  1  0  0  0  0
  6  7  1  6  0  0  0
  6  8  1  0  0  0  0
  6 32  1  0  0  0  0
  8  9  1  6  0  0  0
  8 10  1  0  0  0  0
  8 31  1  0  0  0  0
 10 11  1  6  0  0  0
 10 12  1  0  0  0  0
 10 13  1  0  0  0  0
 13 14  1  0  0  0  0
 14 15  1  1  0  0  0
 14 23  1  0  0  0  0
 14 16  1  0  0  0  0
 16 17  1  6  0  0  0
 16 18  1  0  0  0  0
 16 30  1  0  0  0  0
 18 19  1  6  0  0  0
 18 20  1  0  0  0  0
 18 29  1  0  0  0  0
 20 21  1  6  0  0  0
 20 22  1  0  0  0  0
 20 27  1  0  0  0  0
 22 23  1  0  0  0  0
 23 24  1  6  0  0  0
 23 25  1  0  0  0  0
 25 26  1  0  0  0  0
 26 37  1  0  0  0  0
 26 38  1  0  0  0  0
 26 39  1  0  0  0  0
 27 28  1  0  0  0  0
 27 40  1  0  0  0  0
 27 41  1  0  0  0  0
 28 42  1  0  0  0  0
 29 43  1  0  0  0  0
 30 44  1  0  0  0  0
 31 45  1  0  0  0  0
 32 46  1  0  0  0  0
 33 47  1  0  0  0  0
M  END
>  <cansmi>
CO[C@H]1O[C@@H](CO)[C@H]([C@H]([C@H]1O[C@@H]1O[C@@H](C)[C@@H]([C@@H]([C@@H]1O)O)O)O)O

>  <HBA2>
10

>  <HBD>
6

>  <logP>
-3.7155

>  <TPSA>
158.3

>  <MW>
340.324

$$$$
ZINC06932870
 OpenBabel02121623173D

 47 48  0  0  1  0  0  0  0  0999 V2000
   -2.5802    6.4222   -0.1884 C   0  0  0  0  0  0  0  0  0  0  0  0
   -2.8502    6.0147    1.2614 C   0  0  1  0  0  0  0  0  0  0  0  0
   -2.7786    6.8916    1.9048 H   0  0  0  0  0  0  0  0  0  0  0  0
   -4.2544    5.4148    1.3703 C   0  0  2  0  0  0  0  0  0  0  0  0
   -4.4627    5.1616    2.4098 H   0  0  0  0  0  0  0  0  0  0  0  0
   -4.3286    4.1492    0.5104 C   0  0  1  0  0  0  0  0  0  0  0  0
   -4.1709    4.4097   -0.5362 H   0  0  0  0  0  0  0  0  0  0  0  0
   -3.2415    3.1709    0.9661 C   0  0  1  0  0  0  0  0  0  0  0  0
   -3.2509    2.2906    0.3234 H   0  0  0  0  0  0  0  0  0  0  0  0
   -1.8764    3.8577    0.8730 C   0  0  1  0  0  0  0  0  0  0  0  0
   -1.6713    4.1196   -0.1649 H   0  0  0  0  0  0  0  0  0  0  0  0
   -1.8855    5.0432    1.6709 O   0  0  0  0  0  0  0  0  0  0  0  0
   -0.8630    2.9701    1.3498 O   0  0  0  0  0  0  0  0  0  0  0  0
    0.4694    3.4136    1.0853 C   0  0  2  0  0  0  0  0  0  0  0  0
    0.4726    4.4947    0.9461 H   0  0  0  0  0  0  0  0  0  0  0  0
    0.9932    2.7327   -0.1830 C   0  0  1  0  0  0  0  0  0  0  0  0
    1.9905    3.1078   -0.4128 H   0  0  0  0  0  0  0  0  0  0  0  0
    1.0561    1.2203    0.0516 C   0  0  1  0  0  0  0  0  0  0  0  0
    1.4788    0.7327   -0.8269 H   0  0  0  0  0  0  0  0  0  0  0  0
    1.9386    0.9369    1.2700 C   0  0  1  0  0  0  0  0  0  0  0  0
    2.9530    1.2834    1.0725 H   0  0  0  0  0  0  0  0  0  0  0  0
    1.4131    1.6242    2.4073 O   0  0  0  0  0  0  0  0  0  0  0  0
    1.3746    3.0455    2.2638 C   0  0  2  0  0  0  0  0  0  0  0  0
    2.3817    3.4196    2.0793 H   0  0  0  0  0  0  0  0  0  0  0  0
    0.8601    3.6317    3.4611 O   0  0  0  0  0  0  0  0  0  0  0  0
    1.7452    3.5414    4.5793 C   0  0  0  0  0  0  0  0  0  0  0  0
    1.9580   -0.5677    1.5471 C   0  0  0  0  0  0  0  0  0  0  0  0
    2.8720   -0.8445    2.6101 O   0  0  0  0  0  0  0  0  0  0  0  0
   -0.2608    0.7187    0.2887 O   0  0  0  0  0  0  0  0  0  0  0  0
    0.1128    3.0112   -1.2735 O   0  0  0  0  0  0  0  0  0  0  0  0
   -3.4880    2.7794    2.3181 O   0  0  0  0  0  0  0  0  0  0  0  0
   -5.6130    3.5419    0.6636 O   0  0  0  0  0  0  0  0  0  0  0  0
   -5.2167    6.3647    0.9080 O   0  0  0  0  0  0  0  0  0  0  0  0
   -2.6521    5.5453   -0.8318 H   0  0  0  0  0  0  0  0  0  0  0  0
   -3.3161    7.1632   -0.5006 H   0  0  0  0  0  0  0  0  0  0  0  0
   -1.5800    6.8485   -0.2658 H   0  0  0  0  0  0  0  0  0  0  0  0
    1.2818    4.0088    5.4482 H   0  0  0  0  0  0  0  0  0  0  0  0
    1.9502    2.4932    4.7968 H   0  0  0  0  0  0  0  0  0  0  0  0
    2.6788    4.0534    4.3460 H   0  0  0  0  0  0  0  0  0  0  0  0
    0.9589   -0.8976    1.8318 H   0  0  0  0  0  0  0  0  0  0  0  0
    2.2737   -1.0985    0.6489 H   0  0  0  0  0  0  0  0  0  0  0  0
    2.9356   -1.7816    2.8400 H   0  0  0  0  0  0  0  0  0  0  0  0
   -0.2962   -0.2348    0.4455 H   0  0  0  0  0  0  0  0  0  0  0  0
    0.3806    2.6045   -2.1089 H   0  0  0  0  0  0  0  0  0  0  0  0
   -2.8339    2.1626    2.6744 H   0  0  0  0  0  0  0  0  0  0  0  0
   -5.7300    2.7335    0.1459 H   0  0  0  0  0  0  0  0  0  0  0  0
   -5.2217    7.1936    1.4060 H   0  0  0  0  0  0  0  0  0  0  0  0
  1  2  1  0  0  0  0
  1 34  1  0  0  0  0
  1 35  1  0  0  0  0
  1 36  1  0  0  0  0
  2  3  1  1  0  0  0
  2 12  1  0  0  0  0
  2  4  1  0  0  0  0
  4  5  1  1  0  0  0
  4  6  1  0  0  0  0
  4 33  1  0  0  0  0
  6  7  1  6  0  0  0
  6  8  1  0  0  0  0
  6 32  1  0  0  0  0
  8  9  1  6  0  0  0
  8 10  1  0  0  0  0
  8 31  1  0  0  0  0
 10 11  1  6  0  0  0
 10 12  1  0  0  0  0
 10 13  1  0  0  0  0
 13 14  1  0  0  0  0
 14 15  1  6  0  0  0
 14 23  1  0  0  0  0
 14 16  1  0  0  0  0
 16 17  1  6  0  0  0
 16 18  1  0  0  0  0
 16 30  1  0  0  0  0
 18 19  1  6  0  0  0
 18 20  1  0  0  0  0
 18 29  1  0  0  0  0
 20 21  1  6  0  0  0
 20 22  1  0  0  0  0
 20 27  1  0  0  0  0
 22 23  1  0  0  0  0
 23 24  1  6  0  0  0
 23 25  1  0  0  0  0
 25 26  1  0  0  0  0
 26 37  1  0  0  0  0
 26 38  1  0  0  0  0
 26 39  1  0  0  0  0
 27 28  1  0  0  0  0
 27 40  1  0  0  0  0
 27 41  1  0  0  0  0
 28 42  1  0  0  0  0
 29 43  1  0  0  0  0
 30 44  1  0  0  0  0
 31 45  1  0  0  0  0
 32 46  1  0  0  0  0
 33 47  1  0  0  0  0
M  END
>  <cansmi>
CO[C@H]1O[C@@H](CO)[C@H]([C@H]([C@H]1O[C@@H]1O[C@@H](C)[C@H]([C@@H]([C@@H]1O)O)O)O)O

>  <HBA2>
10

>  <HBD>
6

>  <logP>
-3.7155

>  <TPSA>
158.3

>  <MW>
340.324

$$$$
ZINC13424716
 OpenBabel02121623173D

 49 52  0  0  1  0  0  0  0  0999 V2000
   -0.0167    1.3795    0.0096 C   0  0  0  0  0  0  0  0  0  0  0  0
    1.1683    2.0940    0.0021 C   0  0  0  0  0  0  0  0  0  0  0  0
    2.3774    1.4303   -0.0130 C   0  0  0  0  0  0  0  0  0  0  0  0
    2.4038    0.0341   -0.0208 C   0  0  0  0  0  0  0  0  0  0  0  0
    1.2040   -0.6806   -0.0131 C   0  0  0  0  0  0  0  0  0  0  0  0
    0.0021   -0.0041    0.0020 C   0  0  0  0  0  0  0  0  0  0  0  0
    3.6945   -0.6834   -0.0374 C   0  0  0  0  0  0  0  0  0  0  0  0
    3.6864   -2.0423   -0.0503 C   0  0  0  0  0  0  0  0  0  0  0  0
    4.9141   -2.7479   -0.0669 C   0  0  0  0  0  0  0  0  0  0  0  0
    4.9443   -3.9678   -0.0790 O   0  0  0  0  0  0  0  0  0  0  0  0
    6.1530   -1.9519   -0.0693 C   0  0  0  0  0  0  0  0  0  0  0  0
    6.0489   -0.5496   -0.0552 C   0  0  0  0  0  0  0  0  0  0  0  0
    4.8301    0.0318   -0.0449 O   0  0  0  0  0  0  0  0  0  0  0  0
    7.2014    0.2203   -0.0572 C   0  0  0  0  0  0  0  0  0  0  0  0
    8.4452   -0.3910   -0.0736 C   0  0  0  0  0  0  0  0  0  0  0  0
    8.5528   -1.7804   -0.0881 C   0  0  0  0  0  0  0  0  0  0  0  0
    7.4110   -2.5656   -0.0858 C   0  0  0  0  0  0  0  0  0  0  0  0
    7.5117   -3.9201   -0.0990 O   0  0  0  0  0  0  0  0  0  0  0  0
    9.7814   -2.3670   -0.1045 O   0  0  0  0  0  0  0  0  0  0  0  0
    9.5696    0.3710   -0.0759 O   0  0  0  0  0  0  0  0  0  0  0  0
    9.3924    1.7889   -0.0610 C   0  0  1  0  0  0  0  0  0  0  0  0
    8.7696    2.0685    0.7888 H   0  0  0  0  0  0  0  0  0  0  0  0
   10.7568    2.4728    0.0591 C   0  0  2  0  0  0  0  0  0  0  0  0
   10.6195    3.5529    0.1113 H   0  0  0  0  0  0  0  0  0  0  0  0
   11.6042    2.1232   -1.1681 C   0  0  1  0  0  0  0  0  0  0  0  0
   11.7833    1.0483   -1.1933 H   0  0  0  0  0  0  0  0  0  0  0  0
   10.8509    2.5469   -2.4327 C   0  0  1  0  0  0  0  0  0  0  0  0
   11.4220    2.2519   -3.3130 H   0  0  0  0  0  0  0  0  0  0  0  0
    9.4828    1.8602   -2.4565 C   0  0  1  0  0  0  0  0  0  0  0  0
    9.6192    0.7796   -2.4992 H   0  0  0  0  0  0  0  0  0  0  0  0
    8.7584    2.2027   -1.2730 O   0  0  0  0  0  0  0  0  0  0  0  0
    8.7119    2.3177   -3.6679 C   0  0  0  0  0  0  0  0  0  0  0  0
    9.1131    2.0420   -4.7857 O   0  0  0  0  0  0  0  0  0  0  0  0
    7.6870    2.9636   -3.5301 O   0  5  0  0  0  0  0  0  0  0  0  0
   10.6747    3.9650   -2.4310 O   0  0  0  0  0  0  0  0  0  0  0  0
   12.8530    2.8144   -1.0993 O   0  0  0  0  0  0  0  0  0  0  0  0
   11.4166    2.0176    1.2421 O   0  0  0  0  0  0  0  0  0  0  0  0
   -0.9606    1.9042    0.0260 H   0  0  0  0  0  0  0  0  0  0  0  0
    1.1464    3.1737    0.0078 H   0  0  0  0  0  0  0  0  0  0  0  0
    3.3016    1.9892   -0.0192 H   0  0  0  0  0  0  0  0  0  0  0  0
    1.2173   -1.7605   -0.0194 H   0  0  0  0  0  0  0  0  0  0  0  0
   -0.9265   -0.5555    0.0079 H   0  0  0  0  0  0  0  0  0  0  0  0
    2.7501   -2.5805   -0.0475 H   0  0  0  0  0  0  0  0  0  0  0  0
    7.1302    1.2979   -0.0464 H   0  0  0  0  0  0  0  0  0  0  0  0
    7.5333   -4.3043   -0.9861 H   0  0  0  0  0  0  0  0  0  0  0  0
   10.1439   -2.5451    0.7741 H   0  0  0  0  0  0  0  0  0  0  0  0
   10.2039    4.3038   -3.2047 H   0  0  0  0  0  0  0  0  0  0  0  0
   13.4413    2.6390   -1.8464 H   0  0  0  0  0  0  0  0  0  0  0  0
   10.9324    2.2025    2.0584 H   0  0  0  0  0  0  0  0  0  0  0  0
  1  6  2  0  0  0  0
  1  2  1  0  0  0  0
  1 38  1  0  0  0  0
  2  3  2  0  0  0  0
  2 39  1  0  0  0  0
  3  4  1  0  0  0  0
  3 40  1  0  0  0  0
  4  5  2  0  0  0  0
  4  7  1  0  0  0  0
  5  6  1  0  0  0  0
  5 41  1  0  0  0  0
  6 42  1  0  0  0  0
  7 13  1  0  0  0  0
  7  8  2  0  0  0  0
  8  9  1  0  0  0  0
  8 43  1  0  0  0  0
  9 10  2  0  0  0  0
  9 11  1  0  0  0  0
 11 17  2  0  0  0  0
 11 12  1  0  0  0  0
 12 13  1  0  0  0  0
 12 14  2  0  0  0  0
 14 15  1  0  0  0  0
 14 44  1  0  0  0  0
 15 16  2  0  0  0  0
 15 20  1  0  0  0  0
 16 17  1  0  0  0  0
 16 19  1  0  0  0  0
 17 18  1  0  0  0  0
 18 45  1  0  0  0  0
 19 46  1  0  0  0  0
 20 21  1  0  0  0  0
 21 22  1  1  0  0  0
 21 31  1  0  0  0  0
 21 23  1  0  0  0  0
 23 24  1  1  0  0  0
 23 25  1  0  0  0  0
 23 37  1  0  0  0  0
 25 26  1  6  0  0  0
 25 27  1  0  0  0  0
 25 36  1  0  0  0  0
 27 28  1  6  0  0  0
 27 29  1  0  0  0  0
 27 35  1  0  0  0  0
 29 30  1  6  0  0  0
 29 31  1  0  0  0  0
 29 32  1  0  0  0  0
 32 33  2  0  0  0  0
 32 34  1  0  0  0  0
 35 47  1  0  0  0  0
 36 48  1  0  0  0  0
 37 49  1  0  0  0  0
M  CHG  1  34  -1
M  END
>  <cansmi>
[O-]C(=O)[C@@H]1O[C@@H](Oc2cc3oc(cc(=O)c3c(c2O)O)c2ccccc2)[C@H]([C@@H]([C@@H]1O)O)O

>  <HBA2>
11

>  <HBD>
5

>  <logP>
-1.1925

>  <TPSA>
189.95

>  <MW>
445.353

$$$$
ZINC00058176
 OpenBabel02121623173D

 27 29  0  0  0  0  0  0  0  0999 V2000
   -0.0184    1.5028    0.0103 C   0  0  0  0  0  0  0  0  0  0  0  0
    0.0021   -0.0041    0.0020 C   0  0  0  0  0  0  0  0  0  0  0  0
    0.0060   -0.6712   -1.1131 N   0  0  0  0  0  0  0  0  0  0  0  0
   -0.0149   -2.1245   -1.1872 C   0  0  0  0  0  0  0  0  0  0  0  0
    0.7509   -2.7893   -0.0420 C   0  0  0  0  0  0  0  0  0  0  0  0
    0.3758   -2.1012    1.2456 C   0  0  0  0  0  0  0  0  0  0  0  0
    0.0244   -0.7721    1.2546 C   0  0  0  0  0  0  0  0  0  0  0  0
   -0.2653   -0.3900    2.5406 N   0  0  0  0  0  0  0  0  0  0  0  0
   -0.5450    0.4958    2.8197 H   0  0  0  0  0  0  0  0  0  0  0  0
   -0.0931   -1.4703    3.3620 C   0  0  0  0  0  0  0  0  0  0  0  0
    0.3059   -2.5678    2.5549 C   0  0  0  0  0  0  0  0  0  0  0  0
    0.5587   -3.8256    3.1259 C   0  0  0  0  0  0  0  0  0  0  0  0
    0.3888   -3.9429    4.4802 C   0  0  0  0  0  0  0  0  0  0  0  0
   -0.0162   -2.8730    5.2711 C   0  0  0  0  0  0  0  0  0  0  0  0
   -0.2515   -1.6173    4.7369 C   0  0  0  0  0  0  0  0  0  0  0  0
   -0.1646   -3.0617    6.6083 O   0  0  0  0  0  0  0  0  0  0  0  0
    1.0042    1.8801    0.0026 H   0  0  0  0  0  0  0  0  0  0  0  0
   -0.5455    1.8639   -0.8728 H   0  0  0  0  0  0  0  0  0  0  0  0
   -0.5286    1.8543    0.9071 H   0  0  0  0  0  0  0  0  0  0  0  0
   -1.0507   -2.4628   -1.1603 H   0  0  0  0  0  0  0  0  0  0  0  0
    0.4291   -2.4345   -2.1332 H   0  0  0  0  0  0  0  0  0  0  0  0
    0.4823   -3.8441    0.0146 H   0  0  0  0  0  0  0  0  0  0  0  0
    1.8230   -2.6897   -0.2117 H   0  0  0  0  0  0  0  0  0  0  0  0
    0.8733   -4.6646    2.5231 H   0  0  0  0  0  0  0  0  0  0  0  0
    0.5751   -4.8979    4.9490 H   0  0  0  0  0  0  0  0  0  0  0  0
   -0.5624   -0.7921    5.3604 H   0  0  0  0  0  0  0  0  0  0  0  0
    0.6369   -2.8896    7.1212 H   0  0  0  0  0  0  0  0  0  0  0  0
  1  2  1  0  0  0  0
  1 17  1  0  0  0  0
  1 18  1  0  0  0  0
  1 19  1  0  0  0  0
  2  7  1  0  0  0  0
  2  3  2  0  0  0  0
  3  4  1  0  0  0  0
  4  5  1  0  0  0  0
  4 20  1  0  0  0  0
  4 21  1  0  0  0  0
  5  6  1  0  0  0  0
  5 22  1  0  0  0  0
  5 23  1  0  0  0  0
  6 11  1  0  0  0  0
  6  7  2  0  0  0  0
  7  8  1  0  0  0  0
  8  9  1  0  0  0  0
  8 10  1  0  0  0  0
 10 15  2  0  0  0  0
 10 11  1  0  0  0  0
 11 12  2  0  0  0  0
 12 13  1  0  0  0  0
 12 24  1  0  0  0  0
 13 14  2  0  0  0  0
 13 25  1  0  0  0  0
 14 15  1  0  0  0  0
 14 16  1  0  0  0  0
 15 26  1  0  0  0  0
 16 27  1  0  0  0  0
M  END
>  <cansmi>
Oc1ccc2c(c1)[nH]c1c2CCN=C1C

>  <HBA2>
2

>  <HBD>
2

>  <logP>
1.6742

>  <TPSA>
48.38

>  <MW>
200.236

$$$$
ZINC00058188
 OpenBabel02121623173D

 35 37  0  0  0  0  0  0  0  0999 V2000
    0.3969    1.7820    0.6789 C   0  0  0  0  0  0  0  0  0  0  0  0
    0.1835    0.3774    0.5253 O   0  0  0  0  0  0  0  0  0  0  0  0
    0.4243   -0.1515   -0.6998 C   0  0  0  0  0  0  0  0  0  0  0  0
   -0.5622   -0.1231   -1.6886 C   0  0  0  0  0  0  0  0  0  0  0  0
   -1.9376    0.3864   -1.7489 C   0  0  0  0  0  0  0  0  0  0  0  0
   -2.3805    0.1176   -2.9844 C   0  0  0  0  0  0  0  0  0  0  0  0
   -1.4229   -0.5048   -3.6942 O   0  0  0  0  0  0  0  0  0  0  0  0
   -0.3081   -0.6723   -2.9557 C   0  0  0  0  0  0  0  0  0  0  0  0
    0.9341   -1.2468   -3.2214 C   0  0  0  0  0  0  0  0  0  0  0  0
    1.9000   -1.2787   -2.2609 C   0  0  0  0  0  0  0  0  0  0  0  0
    1.6671   -0.7279   -0.9911 C   0  0  0  0  0  0  0  0  0  0  0  0
    2.7221   -0.7631    0.0331 C   0  0  0  0  0  0  0  0  0  0  0  0
    3.8652   -0.0653   -0.1499 O   0  5  0  0  0  0  0  0  0  0  0  0
    2.5468   -1.5010    1.1689 C   0  0  0  0  0  0  0  0  0  0  0  0
    1.4354   -2.3543    1.2886 C   0  0  0  0  0  0  0  0  0  0  0  0
    0.6973   -2.5312    0.3348 O   0  0  0  0  0  0  0  0  0  0  0  0
    1.1618   -3.0377    2.5731 C   0  0  0  0  0  0  0  0  0  0  0  0
    1.9187   -2.7317    3.7046 C   0  0  0  0  0  0  0  0  0  0  0  0
    1.6584   -3.3718    4.8987 C   0  0  0  0  0  0  0  0  0  0  0  0
    0.6497   -4.3157    4.9756 C   0  0  0  0  0  0  0  0  0  0  0  0
   -0.1041   -4.6239    3.8571 C   0  0  0  0  0  0  0  0  0  0  0  0
    0.1421   -3.9864    2.6586 C   0  0  0  0  0  0  0  0  0  0  0  0
    1.4546    2.0061    0.5405 H   0  0  0  0  0  0  0  0  0  0  0  0
   -0.1892    2.3220   -0.0648 H   0  0  0  0  0  0  0  0  0  0  0  0
    0.0881    2.0894    1.6780 H   0  0  0  0  0  0  0  0  0  0  0  0
   -2.4827    0.8784   -0.9569 H   0  0  0  0  0  0  0  0  0  0  0  0
   -3.3641    0.3643   -3.3561 H   0  0  0  0  0  0  0  0  0  0  0  0
    1.1321   -1.6698   -4.1952 H   0  0  0  0  0  0  0  0  0  0  0  0
    2.8573   -1.7277   -2.4809 H   0  0  0  0  0  0  0  0  0  0  0  0
    3.2618   -1.4291    1.9752 H   0  0  0  0  0  0  0  0  0  0  0  0
    2.7068   -1.9956    3.6457 H   0  0  0  0  0  0  0  0  0  0  0  0
    2.2435   -3.1358    5.7753 H   0  0  0  0  0  0  0  0  0  0  0  0
    0.4501   -4.8142    5.9126 H   0  0  0  0  0  0  0  0  0  0  0  0
   -0.8897   -5.3621    3.9233 H   0  0  0  0  0  0  0  0  0  0  0  0
   -0.4501   -4.2243    1.7874 H   0  0  0  0  0  0  0  0  0  0  0  0
  1  2  1  0  0  0  0
  1 23  1  0  0  0  0
  1 24  1  0  0  0  0
  1 25  1  0  0  0  0
  2  3  1  0  0  0  0
  3 11  2  0  0  0  0
  3  4  1  0  0  0  0
  4  8  2  0  0  0  0
  4  5  1  0  0  0  0
  5  6  2  0  0  0  0
  5 26  1  0  0  0  0
  6  7  1  0  0  0  0
  6 27  1  0  0  0  0
  7  8  1  0  0  0  0
  8  9  1  0  0  0  0
  9 10  2  0  0  0  0
  9 28  1  0  0  0  0
 10 11  1  0  0  0  0
 10 29  1  0  0  0  0
 11 12  1  0  0  0  0
 12 14  2  0  0  0  0
 12 13  1  0  0  0  0
 14 30  1  0  0  0  0
 14 15  1  0  0  0  0
 15 17  1  0  0  0  0
 15 16  2  0  0  0  0
 17 22  2  0  0  0  0
 17 18  1  0  0  0  0
 18 19  2  0  0  0  0
 18 31  1  0  0  0  0
 19 20  1  0  0  0  0
 19 32  1  0  0  0  0
 20 21  2  0  0  0  0
 20 33  1  0  0  0  0
 21 22  1  0  0  0  0
 21 34  1  0  0  0  0
 22 35  1  0  0  0  0
M  CHG  1  13  -1
M  END
>  <cansmi>
COc1c(ccc2c1cco2)/C(=C/C(=O)c1ccccc1)/[O-]

>  <HBA2>
4

>  <HBD>
0

>  <logP>
4.0957

>  <TPSA>
62.5

>  <MW>
293.293

$$$$
ZINC03872686
 OpenBabel02121623173D

 47 47  0  0  1  0  0  0  0  0999 V2000
   -0.0187    1.5258    0.0104 C   0  0  0  0  0  0  0  0  0  0  0  0
    0.0021   -0.0041    0.0020 C   0  0  0  0  0  0  0  0  0  0  0  0
   -1.4333   -0.5336    0.0129 C   0  0  0  0  0  0  0  0  0  0  0  0
   -1.4126   -2.0635    0.0045 C   0  0  0  0  0  0  0  0  0  0  0  0
   -2.8479   -2.5931    0.0153 C   0  0  0  0  0  0  0  0  0  0  0  0
   -2.8272   -4.1229    0.0069 C   0  0  2  0  0  0  0  0  0  0  0  0
   -2.2409   -4.4737   -0.8424 H   0  0  0  0  0  0  0  0  0  0  0  0
   -4.2583   -4.6517   -0.1080 C   0  0  0  0  0  0  0  0  0  0  0  0
   -4.2301   -6.1527   -0.2398 C   0  0  0  0  0  0  0  0  0  0  0  0
   -3.1744   -6.7389   -0.2417 O   0  0  0  0  0  0  0  0  0  0  0  0
   -5.5194   -6.9221   -0.3694 C   0  0  0  0  0  0  0  0  0  0  0  0
   -5.2121   -8.4162   -0.4874 C   0  0  0  0  0  0  0  0  0  0  0  0
   -6.5014   -9.1856   -0.6169 C   0  0  0  0  0  0  0  0  0  0  0  0
   -7.1511   -9.6386    0.5163 C   0  0  0  0  0  0  0  0  0  0  0  0
   -8.3341  -10.3448    0.4028 C   0  0  0  0  0  0  0  0  0  0  0  0
   -8.8714  -10.5996   -0.8487 C   0  0  0  0  0  0  0  0  0  0  0  0
   -8.2177  -10.1433   -1.9893 C   0  0  0  0  0  0  0  0  0  0  0  0
   -7.0348   -9.4319   -1.8682 C   0  0  0  0  0  0  0  0  0  0  0  0
   -8.7412  -10.3909   -3.2198 O   0  0  0  0  0  0  0  0  0  0  0  0
   -8.0159   -9.8923   -4.3456 C   0  0  0  0  0  0  0  0  0  0  0  0
  -10.0349  -11.2946   -0.9622 O   0  0  0  0  0  0  0  0  0  0  0  0
   -2.2398   -4.5980    1.2199 O   0  0  0  0  0  0  0  0  0  0  0  0
    1.0039    1.9031    0.0027 H   0  0  0  0  0  0  0  0  0  0  0  0
   -0.5459    1.8868   -0.8726 H   0  0  0  0  0  0  0  0  0  0  0  0
   -0.5289    1.8773    0.9072 H   0  0  0  0  0  0  0  0  0  0  0  0
    0.5123   -0.3556   -0.8948 H   0  0  0  0  0  0  0  0  0  0  0  0
    0.5293   -0.3651    0.8851 H   0  0  0  0  0  0  0  0  0  0  0  0
   -1.9435   -0.1821    0.9097 H   0  0  0  0  0  0  0  0  0  0  0  0
   -1.9605   -0.1726   -0.8702 H   0  0  0  0  0  0  0  0  0  0  0  0
   -0.9024   -2.4150   -0.8923 H   0  0  0  0  0  0  0  0  0  0  0  0
   -0.8854   -2.4246    0.8875 H   0  0  0  0  0  0  0  0  0  0  0  0
   -3.3581   -2.2415    0.9121 H   0  0  0  0  0  0  0  0  0  0  0  0
   -3.3751   -2.2320   -0.8677 H   0  0  0  0  0  0  0  0  0  0  0  0
   -4.8203   -4.3759    0.7843 H   0  0  0  0  0  0  0  0  0  0  0  0
   -4.7362   -4.2187   -0.9867 H   0  0  0  0  0  0  0  0  0  0  0  0
   -6.1372   -6.7466    0.5113 H   0  0  0  0  0  0  0  0  0  0  0  0
   -6.0531   -6.5895   -1.2597 H   0  0  0  0  0  0  0  0  0  0  0  0
   -4.5943   -8.5916   -1.3681 H   0  0  0  0  0  0  0  0  0  0  0  0
   -4.6784   -8.7488    0.4030 H   0  0  0  0  0  0  0  0  0  0  0  0
   -6.7333   -9.4406    1.4923 H   0  0  0  0  0  0  0  0  0  0  0  0
   -8.8393  -10.6981    1.2895 H   0  0  0  0  0  0  0  0  0  0  0  0
   -6.5275   -9.0734   -2.7516 H   0  0  0  0  0  0  0  0  0  0  0  0
   -8.5412  -10.1583   -5.2629 H   0  0  0  0  0  0  0  0  0  0  0  0
   -7.9353   -8.8077   -4.2745 H   0  0  0  0  0  0  0  0  0  0  0  0
   -7.0181  -10.3308   -4.3582 H   0  0  0  0  0  0  0  0  0  0  0  0
  -10.8269  -10.7398   -0.9533 H   0  0  0  0  0  0  0  0  0  0  0  0
   -2.7104   -4.3234    2.0187 H   0  0  0  0  0  0  0  0  0  0  0  0
  1  2  1  0  0  0  0
  1 23  1  0  0  0  0
  1 24  1  0  0  0  0
  1 25  1  0  0  0  0
  2  3  1  0  0  0  0
  2 26  1  0  0  0  0
  2 27  1  0  0  0  0
  3  4  1  0  0  0  0
  3 28  1  0  0  0  0
  3 29  1  0  0  0  0
  4  5  1  0  0  0  0
  4 30  1  0  0  0  0
  4 31  1  0  0  0  0
  5  6  1  0  0  0  0
  5 32  1  0  0  0  0
  5 33  1  0  0  0  0
  6  7  1  6  0  0  0
  6  8  1  0  0  0  0
  6 22  1  0  0  0  0
  8  9  1  0  0  0  0
  8 34  1  0  0  0  0
  8 35  1  0  0  0  0
  9 10  2  0  0  0  0
  9 11  1  0  0  0  0
 11 12  1  0  0  0  0
 11 36  1  0  0  0  0
 11 37  1  0  0  0  0
 12 13  1  0  0  0  0
 12 38  1  0  0  0  0
 12 39  1  0  0  0  0
 13 18  2  0  0  0  0
 13 14  1  0  0  0  0
 14 15  2  0  0  0  0
 14 40  1  0  0  0  0
 15 16  1  0  0  0  0
 15 41  1  0  0  0  0
 16 17  2  0  0  0  0
 16 21  1  0  0  0  0
 17 18  1  0  0  0  0
 17 19  1  0  0  0  0
 18 42  1  0  0  0  0
 19 20  1  0  0  0  0
 20 43  1  0  0  0  0
 20 44  1  0  0  0  0
 20 45  1  0  0  0  0
 21 46  1  0  0  0  0
 22 47  1  0  0  0  0
M  END
>  <cansmi>
CCCCC[C@H](CC(=O)CCc1ccc(c(c1)OC)O)O

>  <HBA2>
4

>  <HBD>
2

>  <logP>
3.2338

>  <TPSA>
66.76

>  <MW>
294.386

$$$$
ZINC08382286
 OpenBabel02121623173D

 77 81  0  0  1  0  0  0  0  0999 V2000
   -8.0254   -1.9139   -6.6881 C   0  0  0  0  0  0  0  0  0  0  0  0
   -6.7595   -1.1113   -6.3811 C   0  0  2  0  0  0  0  0  0  0  0  0
   -6.6557   -0.3045   -7.1067 H   0  0  0  0  0  0  0  0  0  0  0  0
   -5.5390   -2.0318   -6.4627 C   0  0  2  0  0  0  0  0  0  0  0  0
   -5.6611   -2.8611   -5.7659 H   0  0  0  0  0  0  0  0  0  0  0  0
   -4.2831   -1.2354   -6.0955 C   0  0  1  0  0  0  0  0  0  0  0  0
   -4.1332   -0.4360   -6.8211 H   0  0  0  0  0  0  0  0  0  0  0  0
   -4.4643   -0.6326   -4.6990 C   0  0  1  0  0  0  0  0  0  0  0  0
   -3.5982   -0.0185   -4.4522 H   0  0  0  0  0  0  0  0  0  0  0  0
   -5.7263    0.2339   -4.6856 C   0  0  1  0  0  0  0  0  0  0  0  0
   -5.6089    1.0584   -5.3889 H   0  0  0  0  0  0  0  0  0  0  0  0
   -6.8519   -0.5602   -5.0658 O   0  0  0  0  0  0  0  0  0  0  0  0
   -5.9328    0.7547   -3.3710 O   0  0  0  0  0  0  0  0  0  0  0  0
   -7.0259    1.6701   -3.2735 C   0  0  0  0  0  0  0  0  0  0  0  0
   -7.1529    2.1608   -1.8300 C   0  0  2  0  0  0  0  0  0  0  0  0
   -7.2419    1.3045   -1.1614 H   0  0  0  0  0  0  0  0  0  0  0  0
   -8.3973    3.0428   -1.6982 C   0  0  1  0  0  0  0  0  0  0  0  0
   -9.2867    2.4536   -1.9214 H   0  0  0  0  0  0  0  0  0  0  0  0
   -8.4844    3.5788   -0.2659 C   0  0  1  0  0  0  0  0  0  0  0  0
   -8.6038    2.7468    0.4281 H   0  0  0  0  0  0  0  0  0  0  0  0
   -7.1957    4.3389    0.0624 C   0  0  1  0  0  0  0  0  0  0  0  0
   -7.2258    4.6765    1.0983 H   0  0  0  0  0  0  0  0  0  0  0  0
   -5.9977    3.4068   -0.1374 C   0  0  1  0  0  0  0  0  0  0  0  0
   -6.0714    2.5671    0.5536 H   0  0  0  0  0  0  0  0  0  0  0  0
   -5.9936    2.9199   -1.4809 O   0  0  0  0  0  0  0  0  0  0  0  0
   -4.7880    4.1252    0.1129 O   0  0  0  0  0  0  0  0  0  0  0  0
   -3.6323    3.4154    0.0810 C   0  0  0  0  0  0  0  0  0  0  0  0
   -3.6697    2.0522   -0.1864 C   0  0  0  0  0  0  0  0  0  0  0  0
   -2.4965    1.3200   -0.2185 C   0  0  0  0  0  0  0  0  0  0  0  0
   -1.2728    1.9636    0.0185 C   0  0  0  0  0  0  0  0  0  0  0  0
   -1.2385    3.3453    0.2881 C   0  0  0  0  0  0  0  0  0  0  0  0
   -2.4240    4.0585    0.3166 C   0  0  0  0  0  0  0  0  0  0  0  0
   -0.0632    3.9788    0.5123 O   0  0  0  0  0  0  0  0  0  0  0  0
    1.0555    3.2103    0.9544 C   0  0  1  0  0  0  0  0  0  0  0  0
    0.8662    2.8380    1.9612 H   0  0  0  0  0  0  0  0  0  0  0  0
    1.2662    2.0250    0.0008 C   0  0  0  0  0  0  0  0  0  0  0  0
   -0.0144    1.2096    0.0087 C   0  0  0  0  0  0  0  0  0  0  0  0
    0.0021   -0.0041    0.0020 O   0  0  0  0  0  0  0  0  0  0  0  0
    2.2895    4.0753    0.9619 C   0  0  0  0  0  0  0  0  0  0  0  0
    2.4559    5.0479   -0.0066 C   0  0  0  0  0  0  0  0  0  0  0  0
    3.5833    5.8478   -0.0007 C   0  0  0  0  0  0  0  0  0  0  0  0
    4.5552    5.6682    0.9706 C   0  0  0  0  0  0  0  0  0  0  0  0
    4.3904    4.6855    1.9419 C   0  0  0  0  0  0  0  0  0  0  0  0
    3.2552    3.8909    1.9337 C   0  0  0  0  0  0  0  0  0  0  0  0
    5.3416    4.5050    2.8970 O   0  0  0  0  0  0  0  0  0  0  0  0
    5.6677    6.4502    0.9742 O   0  0  0  0  0  0  0  0  0  0  0  0
    5.7695    7.4383   -0.0531 C   0  0  0  0  0  0  0  0  0  0  0  0
   -2.5284   -0.0100   -0.4817 O   0  0  0  0  0  0  0  0  0  0  0  0
   -7.0726    5.4674   -0.8056 O   0  0  0  0  0  0  0  0  0  0  0  0
   -9.6022    4.4619   -0.1531 O   0  0  0  0  0  0  0  0  0  0  0  0
   -8.3075    4.1371   -2.6129 O   0  0  0  0  0  0  0  0  0  0  0  0
   -4.5959   -1.6828   -3.7389 O   0  0  0  0  0  0  0  0  0  0  0  0
   -3.1486   -2.1042   -6.0976 O   0  0  0  0  0  0  0  0  0  0  0  0
   -5.4120   -2.5399   -7.7922 O   0  0  0  0  0  0  0  0  0  0  0  0
   -8.8944   -1.2585   -6.6290 H   0  0  0  0  0  0  0  0  0  0  0  0
   -7.9548   -2.3341   -7.6914 H   0  0  0  0  0  0  0  0  0  0  0  0
   -8.1289   -2.7208   -5.9626 H   0  0  0  0  0  0  0  0  0  0  0  0
   -7.9473    1.1684   -3.5692 H   0  0  0  0  0  0  0  0  0  0  0  0
   -6.8476    2.5202   -3.9320 H   0  0  0  0  0  0  0  0  0  0  0  0
   -4.6155    1.5642   -0.3698 H   0  0  0  0  0  0  0  0  0  0  0  0
   -2.4097    5.1185    0.5229 H   0  0  0  0  0  0  0  0  0  0  0  0
    2.0396    1.4758    0.3175 H   0  0  0  0  0  0  0  0  0  0  0  0
    1.4676    2.3901   -1.0062 H   0  0  0  0  0  0  0  0  0  0  0  0
    1.7014    5.1857   -0.7669 H   0  0  0  0  0  0  0  0  0  0  0  0
    3.7088    6.6098   -0.7557 H   0  0  0  0  0  0  0  0  0  0  0  0
    3.1251    3.1273    2.6862 H   0  0  0  0  0  0  0  0  0  0  0  0
    6.0286    3.8698    2.6528 H   0  0  0  0  0  0  0  0  0  0  0  0
    5.7571    6.9513   -1.0282 H   0  0  0  0  0  0  0  0  0  0  0  0
    4.9275    8.1266    0.0201 H   0  0  0  0  0  0  0  0  0  0  0  0
    6.7017    7.9907    0.0652 H   0  0  0  0  0  0  0  0  0  0  0  0
   -2.4558   -0.2269   -1.4212 H   0  0  0  0  0  0  0  0  0  0  0  0
   -6.2748    5.9931   -0.6566 H   0  0  0  0  0  0  0  0  0  0  0  0
   -9.7139    4.8444    0.7280 H   0  0  0  0  0  0  0  0  0  0  0  0
   -9.0626    4.7403   -2.5799 H   0  0  0  0  0  0  0  0  0  0  0  0
   -4.7189   -1.3728   -2.8313 H   0  0  0  0  0  0  0  0  0  0  0  0
   -2.3167   -1.6653   -5.8730 H   0  0  0  0  0  0  0  0  0  0  0  0
   -6.1756   -3.0518   -8.0923 H   0  0  0  0  0  0  0  0  0  0  0  0
  1  2  1  0  0  0  0
  1 55  1  0  0  0  0
  1 56  1  0  0  0  0
  1 57  1  0  0  0  0
  2  3  1  6  0  0  0
  2 12  1  0  0  0  0
  2  4  1  0  0  0  0
  4  5  1  1  0  0  0
  4  6  1  0  0  0  0
  4 54  1  0  0  0  0
  6  7  1  6  0  0  0
  6  8  1  0  0  0  0
  6 53  1  0  0  0  0
  8  9  1  1  0  0  0
  8 10  1  0  0  0  0
  8 52  1  0  0  0  0
 10 11  1  6  0  0  0
 10 12  1  0  0  0  0
 10 13  1  0  0  0  0
 13 14  1  0  0  0  0
 14 15  1  0  0  0  0
 14 58  1  0  0  0  0
 14 59  1  0  0  0  0
 15 16  1  1  0  0  0
 15 25  1  0  0  0  0
 15 17  1  0  0  0  0
 17 18  1  6  0  0  0
 17 19  1  0  0  0  0
 17 51  1  0  0  0  0
 19 20  1  1  0  0  0
 19 21  1  0  0  0  0
 19 50  1  0  0  0  0
 21 22  1  1  0  0  0
 21 23  1  0  0  0  0
 21 49  1  0  0  0  0
 23 24  1  1  0  0  0
 23 25  1  0  0  0  0
 23 26  1  0  0  0  0
 26 27  1  0  0  0  0
 27 32  2  0  0  0  0
 27 28  1  0  0  0  0
 28 29  2  0  0  0  0
 28 60  1  0  0  0  0
 29 30  1  0  0  0  0
 29 48  1  0  0  0  0
 30 37  1  0  0  0  0
 30 31  2  0  0  0  0
 31 32  1  0  0  0  0
 31 33  1  0  0  0  0
 32 61  1  0  0  0  0
 33 34  1  0  0  0  0
 34 35  1  1  0  0  0
 34 36  1  0  0  0  0
 34 39  1  0  0  0  0
 36 37  1  0  0  0  0
 36 62  1  0  0  0  0
 36 63  1  0  0  0  0
 37 38  2  0  0  0  0
 39 44  2  0  0  0  0
 39 40  1  0  0  0  0
 40 41  2  0  0  0  0
 40 64  1  0  0  0  0
 41 42  1  0  0  0  0
 41 65  1  0  0  0  0
 42 43  2  0  0  0  0
 42 46  1  0  0  0  0
 43 44  1  0  0  0  0
 43 45  1  0  0  0  0
 44 66  1  0  0  0  0
 45 67  1  0  0  0  0
 46 47  1  0  0  0  0
 47 68  1  0  0  0  0
 47 69  1  0  0  0  0
 47 70  1  0  0  0  0
 48 71  1  0  0  0  0
 49 72  1  0  0  0  0
 50 73  1  0  0  0  0
 51 74  1  0  0  0  0
 52 75  1  0  0  0  0
 53 76  1  0  0  0  0
 54 77  1  0  0  0  0
M  END
>  <cansmi>
COc1ccc(cc1O)[C@@H]1CC(=O)c2c(O1)cc(cc2O)O[C@@H]1O[C@H](CO[C@@H]2O[C@H](C)[C@H]([C@@H]([C@@H]2O)O)O)[C@@H]([C@@H]([C@@H]1O)O)O

>  <HBA2>
15

>  <HBD>
8

>  <logP>
-1.1566

>  <TPSA>
234.29

>  <MW>
610.561

$$$$
ZINC08382287
 OpenBabel02121623173D

 77 81  0  0  1  0  0  0  0  0999 V2000
    1.2768    1.5069    2.4969 C   0  0  0  0  0  0  0  0  0  0  0  0
    2.0623    1.1207    1.2420 C   0  0  1  0  0  0  0  0  0  0  0  0
    2.2023    0.0400    1.2188 H   0  0  0  0  0  0  0  0  0  0  0  0
    1.2864    1.5618   -0.0018 C   0  0  2  0  0  0  0  0  0  0  0  0
    1.8247    1.2511   -0.8973 H   0  0  0  0  0  0  0  0  0  0  0  0
    1.1461    3.0871    0.0077 C   0  0  1  0  0  0  0  0  0  0  0  0
    0.5628    3.3942    0.8758 H   0  0  0  0  0  0  0  0  0  0  0  0
    2.5408    3.7166    0.0764 C   0  0  1  0  0  0  0  0  0  0  0  0
    2.4484    4.8010    0.1382 H   0  0  0  0  0  0  0  0  0  0  0  0
    3.2683    3.1923    1.3172 C   0  0  1  0  0  0  0  0  0  0  0  0
    2.7245    3.4946    2.2122 H   0  0  0  0  0  0  0  0  0  0  0  0
    3.3371    1.7661    1.2603 O   0  0  0  0  0  0  0  0  0  0  0  0
    4.5908    3.7320    1.3579 O   0  0  0  0  0  0  0  0  0  0  0  0
    5.3203    3.3943    2.5393 C   0  0  0  0  0  0  0  0  0  0  0  0
    6.7142    4.0219    2.4749 C   0  0  2  0  0  0  0  0  0  0  0  0
    7.2101    3.7123    1.5549 H   0  0  0  0  0  0  0  0  0  0  0  0
    7.5382    3.5601    3.6797 C   0  0  1  0  0  0  0  0  0  0  0  0
    7.6660    2.4783    3.6405 H   0  0  0  0  0  0  0  0  0  0  0  0
    8.9105    4.2394    3.6404 C   0  0  1  0  0  0  0  0  0  0  0  0
    9.4479    3.9271    2.7449 H   0  0  0  0  0  0  0  0  0  0  0  0
    8.7156    5.7585    3.6173 C   0  0  1  0  0  0  0  0  0  0  0  0
    9.6854    6.2490    3.5335 H   0  0  0  0  0  0  0  0  0  0  0  0
    7.8461    6.1354    2.4149 C   0  0  1  0  0  0  0  0  0  0  0  0
    8.3569    5.8536    1.4942 H   0  0  0  0  0  0  0  0  0  0  0  0
    6.5971    5.4459    2.4972 O   0  0  0  0  0  0  0  0  0  0  0  0
    7.6133    7.5453    2.4184 O   0  0  0  0  0  0  0  0  0  0  0  0
    6.9425    8.0615    1.3581 C   0  0  0  0  0  0  0  0  0  0  0  0
    6.5191    7.2200    0.3365 C   0  0  0  0  0  0  0  0  0  0  0  0
    5.8360    7.7376   -0.7493 C   0  0  0  0  0  0  0  0  0  0  0  0
    5.5776    9.1161   -0.8106 C   0  0  0  0  0  0  0  0  0  0  0  0
    6.0028    9.9640    0.2288 C   0  0  0  0  0  0  0  0  0  0  0  0
    6.6810    9.4246    1.3077 C   0  0  0  0  0  0  0  0  0  0  0  0
    5.7476   11.2928    0.1868 O   0  0  0  0  0  0  0  0  0  0  0  0
    5.4975   11.9024   -1.0796 C   0  0  1  0  0  0  0  0  0  0  0  0
    6.4078   11.8826   -1.6789 H   0  0  0  0  0  0  0  0  0  0  0  0
    4.3885   11.1275   -1.8061 C   0  0  0  0  0  0  0  0  0  0  0  0
    4.8663    9.6942   -1.9560 C   0  0  0  0  0  0  0  0  0  0  0  0
    4.6696    9.0591   -2.9714 O   0  0  0  0  0  0  0  0  0  0  0  0
    5.0617   13.3302   -0.8740 C   0  0  0  0  0  0  0  0  0  0  0  0
    4.2863   13.6638    0.2209 C   0  0  0  0  0  0  0  0  0  0  0  0
    3.8887   14.9732    0.4170 C   0  0  0  0  0  0  0  0  0  0  0  0
    4.2577   15.9527   -0.4910 C   0  0  0  0  0  0  0  0  0  0  0  0
    5.0333   15.6159   -1.5961 C   0  0  0  0  0  0  0  0  0  0  0  0
    5.4333   14.3025   -1.7837 C   0  0  0  0  0  0  0  0  0  0  0  0
    5.3977   16.5735   -2.4904 O   0  0  0  0  0  0  0  0  0  0  0  0
    3.8623   17.2402   -0.3028 O   0  0  0  0  0  0  0  0  0  0  0  0
    3.0679   17.5125    0.8534 C   0  0  0  0  0  0  0  0  0  0  0  0
    5.4188    6.9194   -1.7471 O   0  0  0  0  0  0  0  0  0  0  0  0
    8.0714    6.1769    4.8223 O   0  0  0  0  0  0  0  0  0  0  0  0
    9.6596    3.8711    4.8003 O   0  0  0  0  0  0  0  0  0  0  0  0
    6.8621    3.9189    4.8864 O   0  0  0  0  0  0  0  0  0  0  0  0
    3.2810    3.3665   -1.0947 O   0  0  0  0  0  0  0  0  0  0  0  0
    0.4872    3.5140   -1.1863 O   0  0  0  0  0  0  0  0  0  0  0  0
   -0.0110    0.9628    0.0073 O   0  0  0  0  0  0  0  0  0  0  0  0
    0.3041    1.0153    2.4823 H   0  0  0  0  0  0  0  0  0  0  0  0
    1.8294    1.1927    3.3824 H   0  0  0  0  0  0  0  0  0  0  0  0
    1.1374    2.5877    2.5201 H   0  0  0  0  0  0  0  0  0  0  0  0
    4.7913    3.7731    3.4138 H   0  0  0  0  0  0  0  0  0  0  0  0
    5.4128    2.3106    2.6119 H   0  0  0  0  0  0  0  0  0  0  0  0
    6.7232    6.1608    0.3905 H   0  0  0  0  0  0  0  0  0  0  0  0
    7.0115   10.0662    2.1112 H   0  0  0  0  0  0  0  0  0  0  0  0
    4.2230   11.5426   -2.7007 H   0  0  0  0  0  0  0  0  0  0  0  0
    3.4712   11.1533   -1.2180 H   0  0  0  0  0  0  0  0  0  0  0  0
    3.9941   12.9005    0.9269 H   0  0  0  0  0  0  0  0  0  0  0  0
    3.2867   15.2320    1.2756 H   0  0  0  0  0  0  0  0  0  0  0  0
    6.0350   14.0385   -2.6408 H   0  0  0  0  0  0  0  0  0  0  0  0
    4.7695   16.6938   -3.2157 H   0  0  0  0  0  0  0  0  0  0  0  0
    2.1493   16.9275    0.8091 H   0  0  0  0  0  0  0  0  0  0  0  0
    3.6269   17.2438    1.7498 H   0  0  0  0  0  0  0  0  0  0  0  0
    2.8217   18.5739    0.8834 H   0  0  0  0  0  0  0  0  0  0  0  0
    4.5319    6.5576   -1.6142 H   0  0  0  0  0  0  0  0  0  0  0  0
    7.9125    7.1294    4.8731 H   0  0  0  0  0  0  0  0  0  0  0  0
   10.5387    4.2717    4.8443 H   0  0  0  0  0  0  0  0  0  0  0  0
    7.3287    3.6563    5.6917 H   0  0  0  0  0  0  0  0  0  0  0  0
    4.1759    3.7321   -1.1183 H   0  0  0  0  0  0  0  0  0  0  0  0
    0.3646    4.4713   -1.2471 H   0  0  0  0  0  0  0  0  0  0  0  0
    0.0021   -0.0041    0.0020 H   0  0  0  0  0  0  0  0  0  0  0  0
  1  2  1  0  0  0  0
  1 55  1  0  0  0  0
  1 56  1  0  0  0  0
  1 57  1  0  0  0  0
  2  3  1  6  0  0  0
  2 12  1  0  0  0  0
  2  4  1  0  0  0  0
  4  5  1  6  0  0  0
  4  6  1  0  0  0  0
  4 54  1  0  0  0  0
  6  7  1  1  0  0  0
  6  8  1  0  0  0  0
  6 53  1  0  0  0  0
  8  9  1  1  0  0  0
  8 10  1  0  0  0  0
  8 52  1  0  0  0  0
 10 11  1  1  0  0  0
 10 12  1  0  0  0  0
 10 13  1  0  0  0  0
 13 14  1  0  0  0  0
 14 15  1  0  0  0  0
 14 58  1  0  0  0  0
 14 59  1  0  0  0  0
 15 16  1  6  0  0  0
 15 25  1  0  0  0  0
 15 17  1  0  0  0  0
 17 18  1  6  0  0  0
 17 19  1  0  0  0  0
 17 51  1  0  0  0  0
 19 20  1  6  0  0  0
 19 21  1  0  0  0  0
 19 50  1  0  0  0  0
 21 22  1  6  0  0  0
 21 23  1  0  0  0  0
 21 49  1  0  0  0  0
 23 24  1  6  0  0  0
 23 25  1  0  0  0  0
 23 26  1  0  0  0  0
 26 27  1  0  0  0  0
 27 32  2  0  0  0  0
 27 28  1  0  0  0  0
 28 29  2  0  0  0  0
 28 60  1  0  0  0  0
 29 30  1  0  0  0  0
 29 48  1  0  0  0  0
 30 37  1  0  0  0  0
 30 31  2  0  0  0  0
 31 32  1  0  0  0  0
 31 33  1  0  0  0  0
 32 61  1  0  0  0  0
 33 34  1  0  0  0  0
 34 35  1  6  0  0  0
 34 36  1  0  0  0  0
 34 39  1  0  0  0  0
 36 37  1  0  0  0  0
 36 62  1  0  0  0  0
 36 63  1  0  0  0  0
 37 38  2  0  0  0  0
 39 44  2  0  0  0  0
 39 40  1  0  0  0  0
 40 41  2  0  0  0  0
 40 64  1  0  0  0  0
 41 42  1  0  0  0  0
 41 65  1  0  0  0  0
 42 43  2  0  0  0  0
 42 46  1  0  0  0  0
 43 44  1  0  0  0  0
 43 45  1  0  0  0  0
 44 66  1  0  0  0  0
 45 67  1  0  0  0  0
 46 47  1  0  0  0  0
 47 68  1  0  0  0  0
 47 69  1  0  0  0  0
 47 70  1  0  0  0  0
 48 71  1  0  0  0  0
 49 72  1  0  0  0  0
 50 73  1  0  0  0  0
 51 74  1  0  0  0  0
 52 75  1  0  0  0  0
 53 76  1  0  0  0  0
 54 77  1  0  0  0  0
M  END
>  <cansmi>
COc1ccc(cc1O)[C@@H]1CC(=O)c2c(O1)cc(cc2O)O[C@@H]1O[C@H](CO[C@@H]2O[C@@H](C)[C@H]([C@@H]([C@@H]2O)O)O)[C@@H]([C@@H]([C@@H]1O)O)O

>  <HBA2>
15

>  <HBD>
8

>  <logP>
-1.1566

>  <TPSA>
234.29

>  <MW>
610.561

$$$$
ZINC28966907
 OpenBabel02121623173D

 48 51  0  0  1  0  0  0  0  0999 V2000
    1.5165    1.8734    0.0785 C   0  0  0  0  0  0  0  0  0  0  0  0
    0.3952    1.0759    0.2472 C   0  0  0  0  0  0  0  0  0  0  0  0
    0.4996   -0.3002    0.2306 C   0  0  0  0  0  0  0  0  0  0  0  0
    1.7371   -0.9026    0.0451 C   0  0  0  0  0  0  0  0  0  0  0  0
    2.8732   -0.0937   -0.1169 C   0  0  0  0  0  0  0  0  0  0  0  0
    2.7554    1.2971   -0.1040 C   0  0  0  0  0  0  0  0  0  0  0  0
    4.1854   -0.7389   -0.2917 C   0  0  0  0  0  0  0  0  0  0  0  0
    5.2166   -0.1030   -0.2320 O   0  0  0  0  0  0  0  0  0  0  0  0
    4.1910   -2.2299   -0.5490 C   0  0  1  0  0  0  0  0  0  0  0  0
    5.1813   -2.6430   -0.3070 H   0  0  0  0  0  0  0  0  0  0  0  0
    3.0903   -2.8696    0.3080 C   0  0  1  0  0  0  0  0  0  0  0  0
    3.2677   -2.7235    1.3837 H   0  0  0  0  0  0  0  0  0  0  0  0
    1.8367   -2.2498    0.0165 O   0  0  0  0  0  0  0  0  0  0  0  0
    2.9942   -4.3342   -0.0533 C   0  0  0  0  0  0  0  0  0  0  0  0
    3.1526   -4.7088   -1.3271 C   0  0  0  0  0  0  0  0  0  0  0  0
    3.4081   -3.6908   -2.3614 C   0  0  0  0  0  0  0  0  0  0  0  0
    3.9106   -2.5027   -2.0022 C   0  0  0  0  0  0  0  0  0  0  0  0
    4.1635   -1.5561   -2.9370 O   0  0  0  0  0  0  0  0  0  0  0  0
    3.1074   -3.9840   -3.8087 C   0  0  1  0  0  0  0  0  0  0  0  0
    2.9982   -3.0472   -4.3748 H   0  0  0  0  0  0  0  0  0  0  0  0
    4.2104   -4.8729   -4.3894 C   0  0  2  0  0  0  0  0  0  0  0  0
    5.1970   -4.3928   -4.3110 H   0  0  0  0  0  0  0  0  0  0  0  0
    3.8669   -5.2159   -5.8422 C   0  0  1  0  0  0  0  0  0  0  0  0
    4.6417   -5.8467   -6.3025 H   0  0  0  0  0  0  0  0  0  0  0  0
    2.4928   -5.8915   -5.8848 C   0  0  1  0  0  0  0  0  0  0  0  0
    2.5118   -6.8739   -5.3903 H   0  0  0  0  0  0  0  0  0  0  0  0
    1.4564   -4.9630   -5.2465 C   0  0  1  0  0  0  0  0  0  0  0  0
    0.4753   -5.4539   -5.1661 H   0  0  0  0  0  0  0  0  0  0  0  0
    1.8518   -4.6591   -3.9073 O   0  0  0  0  0  0  0  0  0  0  0  0
    1.3628   -3.6688   -6.0571 C   0  0  0  0  0  0  0  0  0  0  0  0
    0.2845   -2.8730   -5.5610 O   0  0  0  0  0  0  0  0  0  0  0  0
    2.1291   -6.1517   -7.2421 O   0  0  0  0  0  0  0  0  0  0  0  0
    3.8352   -4.0184   -6.6213 O   0  0  0  0  0  0  0  0  0  0  0  0
    4.3061   -6.0762   -3.6246 O   0  0  0  0  0  0  0  0  0  0  0  0
    3.0787   -6.0225   -1.6662 O   0  0  0  0  0  0  0  0  0  0  0  0
    1.4192    2.9489    0.0901 H   0  0  0  0  0  0  0  0  0  0  0  0
   -0.5713    1.5365    0.3887 H   0  0  0  0  0  0  0  0  0  0  0  0
   -0.3823   -0.9095    0.3625 H   0  0  0  0  0  0  0  0  0  0  0  0
    3.6292    1.9178   -0.2367 H   0  0  0  0  0  0  0  0  0  0  0  0
    2.7958   -5.0894    0.7215 H   0  0  0  0  0  0  0  0  0  0  0  0
    3.9565   -1.7614   -3.9977 H   0  0  0  0  0  0  0  0  0  0  0  0
    2.3050   -3.1088   -5.9638 H   0  0  0  0  0  0  0  0  0  0  0  0
    1.1834   -3.9109   -7.1150 H   0  0  0  0  0  0  0  0  0  0  0  0
    0.0618   -1.8996   -6.0223 H   0  0  0  0  0  0  0  0  0  0  0  0
    1.1684   -6.6361   -7.4709 H   0  0  0  0  0  0  0  0  0  0  0  0
    3.6038   -4.0671   -7.6956 H   0  0  0  0  0  0  0  0  0  0  0  0
    5.0485   -6.8418   -3.8944 H   0  0  0  0  0  0  0  0  0  0  0  0
    3.2094   -6.3280   -2.7148 H   0  0  0  0  0  0  0  0  0  0  0  0
  1  6  2  0  0  0  0
  1  2  1  0  0  0  0
  1 36  1  0  0  0  0
  2  3  2  0  0  0  0
  2 37  1  0  0  0  0
  3  4  1  0  0  0  0
  3 38  1  0  0  0  0
  4 13  1  0  0  0  0
  4  5  2  0  0  0  0
  5  6  1  0  0  0  0
  5  7  1  0  0  0  0
  6 39  1  0  0  0  0
  7  8  2  0  0  0  0
  7  9  1  0  0  0  0
  9 10  1  1  0  0  0
  9 17  1  0  0  0  0
  9 11  1  0  0  0  0
 11 12  1  1  0  0  0
 11 13  1  0  0  0  0
 11 14  1  0  0  0  0
 14 15  2  0  0  0  0
 14 40  1  0  0  0  0
 15 16  1  0  0  0  0
 15 35  1  0  0  0  0
 16 17  2  0  0  0  0
 16 19  1  0  0  0  0
 17 18  1  0  0  0  0
 18 41  1  0  0  0  0
 19 20  1  6  0  0  0
 19 29  1  0  0  0  0
 19 21  1  0  0  0  0
 21 22  1  1  0  0  0
 21 23  1  0  0  0  0
 21 34  1  0  0  0  0
 23 24  1  6  0  0  0
 23 25  1  0  0  0  0
 23 33  1  0  0  0  0
 25 26  1  1  0  0  0
 25 27  1  0  0  0  0
 25 32  1  0  0  0  0
 27 28  1  1  0  0  0
 27 29  1  0  0  0  0
 27 30  1  0  0  0  0
 30 31  1  0  0  0  0
 30 42  1  0  0  0  0
 30 43  1  0  0  0  0
 31 44  1  0  0  0  0
 32 45  1  0  0  0  0
 33 46  1  0  0  0  0
 34 47  1  0  0  0  0
 35 48  1  0  0  0  0
M  END
>  <cansmi>
OC[C@@H]1O[C@H]([C@H]([C@@H]([C@@H]1O)O)O)C1=C(O)[C@@H]2[C@H](C=C1O)Oc1c(C2=O)cccc1

>  <HBA2>
9

>  <HBD>
6

>  <logP>
-0.6435

>  <TPSA>
156.91

>  <MW>
392.357

$$$$
ZINC28966911
 OpenBabel02121623173D

 48 51  0  0  1  0  0  0  0  0999 V2000
   -4.5548    9.2654   -2.9139 C   0  0  0  0  0  0  0  0  0  0  0  0
   -3.2942    9.6506   -3.3432 C   0  0  0  0  0  0  0  0  0  0  0  0
   -2.3876    8.7145   -3.7980 C   0  0  0  0  0  0  0  0  0  0  0  0
   -2.7321    7.3696   -3.8301 C   0  0  0  0  0  0  0  0  0  0  0  0
   -4.0137    6.9822   -3.4073 C   0  0  0  0  0  0  0  0  0  0  0  0
   -4.9206    7.9368   -2.9436 C   0  0  0  0  0  0  0  0  0  0  0  0
   -4.3802    5.5572   -3.4649 C   0  0  0  0  0  0  0  0  0  0  0  0
   -5.5267    5.1922   -3.3115 O   0  0  0  0  0  0  0  0  0  0  0  0
   -3.2653    4.5682   -3.7243 C   0  0  1  0  0  0  0  0  0  0  0  0
   -3.6925    3.6268   -4.1002 H   0  0  0  0  0  0  0  0  0  0  0  0
   -2.2931    5.1801   -4.7412 C   0  0  1  0  0  0  0  0  0  0  0  0
   -2.7723    5.3710   -5.7127 H   0  0  0  0  0  0  0  0  0  0  0  0
   -1.8357    6.4509   -4.2514 O   0  0  0  0  0  0  0  0  0  0  0  0
   -1.1077    4.2540   -4.8884 C   0  0  0  0  0  0  0  0  0  0  0  0
   -0.6345    3.6171   -3.8146 C   0  0  0  0  0  0  0  0  0  0  0  0
   -1.2706    3.8214   -2.5012 C   0  0  0  0  0  0  0  0  0  0  0  0
   -2.5300    4.2730   -2.4454 C   0  0  0  0  0  0  0  0  0  0  0  0
   -3.1361    4.4618   -1.2492 O   0  0  0  0  0  0  0  0  0  0  0  0
   -0.5093    3.5310   -1.2335 C   0  0  1  0  0  0  0  0  0  0  0  0
   -0.9602    4.0659   -0.3846 H   0  0  0  0  0  0  0  0  0  0  0  0
   -0.4711    2.0192   -0.9959 C   0  0  2  0  0  0  0  0  0  0  0  0
   -1.4846    1.5987   -0.9184 H   0  0  0  0  0  0  0  0  0  0  0  0
    0.3550    1.7284    0.2609 C   0  0  1  0  0  0  0  0  0  0  0  0
    0.3985    0.6502    0.4745 H   0  0  0  0  0  0  0  0  0  0  0  0
    1.7550    2.3253    0.0877 C   0  0  1  0  0  0  0  0  0  0  0  0
    2.3160    1.8136   -0.7082 H   0  0  0  0  0  0  0  0  0  0  0  0
    1.6308    3.8253   -0.1918 C   0  0  2  0  0  0  0  0  0  0  0  0
    1.1103    4.3430    0.6274 H   0  0  0  0  0  0  0  0  0  0  0  0
    0.8255    4.0267   -1.3550 O   0  0  0  0  0  0  0  0  0  0  0  0
    3.0219    4.4177   -0.4255 C   0  0  0  0  0  0  0  0  0  0  0  0
    2.9177    5.8355   -0.5708 O   0  0  0  0  0  0  0  0  0  0  0  0
    2.5120    2.1220    1.2825 O   0  0  0  0  0  0  0  0  0  0  0  0
   -0.2785    2.3176    1.3983 O   0  0  0  0  0  0  0  0  0  0  0  0
    0.1284    1.3739   -2.1212 O   0  0  0  0  0  0  0  0  0  0  0  0
    0.4279    2.7788   -3.9350 O   0  0  0  0  0  0  0  0  0  0  0  0
   -5.2521   10.0082   -2.5557 H   0  0  0  0  0  0  0  0  0  0  0  0
   -3.0186   10.6947   -3.3219 H   0  0  0  0  0  0  0  0  0  0  0  0
   -1.4090    9.0285   -4.1297 H   0  0  0  0  0  0  0  0  0  0  0  0
   -5.9031    7.6362   -2.6108 H   0  0  0  0  0  0  0  0  0  0  0  0
   -0.6353    4.1027   -5.8702 H   0  0  0  0  0  0  0  0  0  0  0  0
   -2.5936    4.2443   -0.3173 H   0  0  0  0  0  0  0  0  0  0  0  0
    3.6690    4.1837    0.4327 H   0  0  0  0  0  0  0  0  0  0  0  0
    3.4553    3.9863   -1.3399 H   0  0  0  0  0  0  0  0  0  0  0  0
    3.8209    6.4382   -0.7468 H   0  0  0  0  0  0  0  0  0  0  0  0
    3.5482    2.4857    1.3456 H   0  0  0  0  0  0  0  0  0  0  0  0
    0.1736    2.2124    2.3956 H   0  0  0  0  0  0  0  0  0  0  0  0
    0.2426    0.2799   -2.1314 H   0  0  0  0  0  0  0  0  0  0  0  0
    0.8176    2.2542   -3.0502 H   0  0  0  0  0  0  0  0  0  0  0  0
  1  6  2  0  0  0  0
  1  2  1  0  0  0  0
  1 36  1  0  0  0  0
  2  3  2  0  0  0  0
  2 37  1  0  0  0  0
  3  4  1  0  0  0  0
  3 38  1  0  0  0  0
  4 13  1  0  0  0  0
  4  5  2  0  0  0  0
  5  6  1  0  0  0  0
  5  7  1  0  0  0  0
  6 39  1  0  0  0  0
  7  8  2  0  0  0  0
  7  9  1  0  0  0  0
  9 10  1  6  0  0  0
  9 17  1  0  0  0  0
  9 11  1  0  0  0  0
 11 12  1  6  0  0  0
 11 13  1  0  0  0  0
 11 14  1  0  0  0  0
 14 15  2  0  0  0  0
 14 40  1  0  0  0  0
 15 16  1  0  0  0  0
 15 35  1  0  0  0  0
 16 17  2  0  0  0  0
 16 19  1  0  0  0  0
 17 18  1  0  0  0  0
 18 41  1  0  0  0  0
 19 20  1  1  0  0  0
 19 29  1  0  0  0  0
 19 21  1  0  0  0  0
 21 22  1  1  0  0  0
 21 23  1  0  0  0  0
 21 34  1  0  0  0  0
 23 24  1  1  0  0  0
 23 25  1  0  0  0  0
 23 33  1  0  0  0  0
 25 26  1  6  0  0  0
 25 27  1  0  0  0  0
 25 32  1  0  0  0  0
 27 28  1  1  0  0  0
 27 29  1  0  0  0  0
 27 30  1  0  0  0  0
 30 31  1  0  0  0  0
 30 42  1  0  0  0  0
 30 43  1  0  0  0  0
 31 44  1  0  0  0  0
 32 45  1  0  0  0  0
 33 46  1  0  0  0  0
 34 47  1  0  0  0  0
 35 48  1  0  0  0  0
M  END
>  <cansmi>
OC[C@H]1O[C@H]([C@H]([C@@H]([C@@H]1O)O)O)C1=C(O)[C@@H]2[C@H](C=C1O)Oc1c(C2=O)cccc1

>  <HBA2>
9

>  <HBD>
6

>  <logP>
-0.6435

>  <TPSA>
156.91

>  <MW>
392.357

$$$$
ZINC28966917
 OpenBabel02121623173D

 48 51  0  0  1  0  0  0  0  0999 V2000
    0.4660    2.8333    4.8080 C   0  0  0  0  0  0  0  0  0  0  0  0
    1.8313    2.6233    4.6910 C   0  0  0  0  0  0  0  0  0  0  0  0
    2.3974    2.3320    3.4662 C   0  0  0  0  0  0  0  0  0  0  0  0
    1.5991    2.2452    2.3338 C   0  0  0  0  0  0  0  0  0  0  0  0
    0.2153    2.4527    2.4539 C   0  0  0  0  0  0  0  0  0  0  0  0
   -0.3460    2.7495    3.6972 C   0  0  0  0  0  0  0  0  0  0  0  0
   -0.6366    2.3504    1.2514 C   0  0  0  0  0  0  0  0  0  0  0  0
   -1.7904    2.7244    1.2408 O   0  0  0  0  0  0  0  0  0  0  0  0
    0.0308    1.7468    0.0310 C   0  0  2  0  0  0  0  0  0  0  0  0
    0.0231    0.6494    0.1065 H   0  0  0  0  0  0  0  0  0  0  0  0
    1.4441    2.3483   -0.0349 C   0  0  1  0  0  0  0  0  0  0  0  0
    1.4611    3.4480   -0.0149 H   0  0  0  0  0  0  0  0  0  0  0  0
    2.1640    1.9628    1.1316 O   0  0  0  0  0  0  0  0  0  0  0  0
    2.1149    1.8759   -1.2938 C   0  0  0  0  0  0  0  0  0  0  0  0
    1.3846    1.7723   -2.4142 C   0  0  0  0  0  0  0  0  0  0  0  0
   -0.0443    2.1328   -2.3871 C   0  0  0  0  0  0  0  0  0  0  0  0
   -0.7042    2.1050   -1.2310 C   0  0  0  0  0  0  0  0  0  0  0  0
   -2.0205    2.4215   -1.1961 O   0  0  0  0  0  0  0  0  0  0  0  0
   -0.7533    2.5144   -3.6610 C   0  0  1  0  0  0  0  0  0  0  0  0
   -1.8408    2.5473   -3.4992 H   0  0  0  0  0  0  0  0  0  0  0  0
   -0.2135    3.8559   -4.1636 C   0  0  2  0  0  0  0  0  0  0  0  0
   -0.3521    4.6507   -3.4159 H   0  0  0  0  0  0  0  0  0  0  0  0
   -0.8955    4.2075   -5.4893 C   0  0  1  0  0  0  0  0  0  0  0  0
   -0.5433    5.1731   -5.8813 H   0  0  0  0  0  0  0  0  0  0  0  0
   -0.6566    3.0730   -6.4903 C   0  0  1  0  0  0  0  0  0  0  0  0
    0.4057    2.9950   -6.7650 H   0  0  0  0  0  0  0  0  0  0  0  0
   -1.1793    1.7617   -5.8979 C   0  0  1  0  0  0  0  0  0  0  0  0
   -0.9346    0.9055   -6.5437 H   0  0  0  0  0  0  0  0  0  0  0  0
   -0.5266    1.5099   -4.6518 O   0  0  0  0  0  0  0  0  0  0  0  0
   -2.6885    1.8703   -5.6706 C   0  0  0  0  0  0  0  0  0  0  0  0
   -3.2011    0.6006   -5.2616 O   0  0  0  0  0  0  0  0  0  0  0  0
   -1.3492    3.3566   -7.7077 O   0  0  0  0  0  0  0  0  0  0  0  0
   -2.2993    4.3696   -5.2765 O   0  0  0  0  0  0  0  0  0  0  0  0
    1.1980    3.7578   -4.3640 O   0  0  0  0  0  0  0  0  0  0  0  0
    1.9586    1.3384   -3.5668 O   0  0  0  0  0  0  0  0  0  0  0  0
    0.0372    3.0629    5.7723 H   0  0  0  0  0  0  0  0  0  0  0  0
    2.4588    2.6888    5.5675 H   0  0  0  0  0  0  0  0  0  0  0  0
    3.4625    2.1705    3.3890 H   0  0  0  0  0  0  0  0  0  0  0  0
   -1.4097    2.9127    3.7881 H   0  0  0  0  0  0  0  0  0  0  0  0
    3.1839    1.6171   -1.3082 H   0  0  0  0  0  0  0  0  0  0  0  0
   -2.5484    2.6820   -2.1253 H   0  0  0  0  0  0  0  0  0  0  0  0
   -2.8886    2.6162   -4.8872 H   0  0  0  0  0  0  0  0  0  0  0  0
   -3.1788    2.1799   -6.6054 H   0  0  0  0  0  0  0  0  0  0  0  0
   -4.2742    0.4828   -5.0505 H   0  0  0  0  0  0  0  0  0  0  0  0
   -1.2944    2.6501   -8.5491 H   0  0  0  0  0  0  0  0  0  0  0  0
   -2.9575    4.6257   -6.1199 H   0  0  0  0  0  0  0  0  0  0  0  0
    1.7640    4.6289   -4.7256 H   0  0  0  0  0  0  0  0  0  0  0  0
    1.3565    1.2548   -4.4836 H   0  0  0  0  0  0  0  0  0  0  0  0
  1  6  2  0  0  0  0
  1  2  1  0  0  0  0
  1 36  1  0  0  0  0
  2  3  2  0  0  0  0
  2 37  1  0  0  0  0
  3  4  1  0  0  0  0
  3 38  1  0  0  0  0
  4 13  1  0  0  0  0
  4  5  2  0  0  0  0
  5  6  1  0  0  0  0
  5  7  1  0  0  0  0
  6 39  1  0  0  0  0
  7  8  2  0  0  0  0
  7  9  1  0  0  0  0
  9 10  1  1  0  0  0
  9 17  1  0  0  0  0
  9 11  1  0  0  0  0
 11 12  1  6  0  0  0
 11 13  1  0  0  0  0
 11 14  1  0  0  0  0
 14 15  2  0  0  0  0
 14 40  1  0  0  0  0
 15 16  1  0  0  0  0
 15 35  1  0  0  0  0
 16 17  2  0  0  0  0
 16 19  1  0  0  0  0
 17 18  1  0  0  0  0
 18 41  1  0  0  0  0
 19 20  1  1  0  0  0
 19 29  1  0  0  0  0
 19 21  1  0  0  0  0
 21 22  1  1  0  0  0
 21 23  1  0  0  0  0
 21 34  1  0  0  0  0
 23 24  1  6  0  0  0
 23 25  1  0  0  0  0
 23 33  1  0  0  0  0
 25 26  1  6  0  0  0
 25 27  1  0  0  0  0
 25 32  1  0  0  0  0
 27 28  1  6  0  0  0
 27 29  1  0  0  0  0
 27 30  1  0  0  0  0
 30 31  1  0  0  0  0
 30 42  1  0  0  0  0
 30 43  1  0  0  0  0
 31 44  1  0  0  0  0
 32 45  1  0  0  0  0
 33 46  1  0  0  0  0
 34 47  1  0  0  0  0
 35 48  1  0  0  0  0
M  END
>  <cansmi>
OC[C@@H]1O[C@H]([C@H]([C@@H]([C@@H]1O)O)O)C1=C(O)[C@H]2[C@H](C=C1O)Oc1c(C2=O)cccc1

>  <HBA2>
9

>  <HBD>
6

>  <logP>
-0.6435

>  <TPSA>
156.91

>  <MW>
392.357

$$$$
ZINC28966920
 OpenBabel02121623173D

 48 51  0  0  1  0  0  0  0  0999 V2000
   -0.9031    3.7580   -0.4824 C   0  0  0  0  0  0  0  0  0  0  0  0
    0.3240    4.3790   -0.3083 C   0  0  0  0  0  0  0  0  0  0  0  0
    1.4756    3.6340   -0.1528 C   0  0  0  0  0  0  0  0  0  0  0  0
    1.4144    2.2472   -0.1683 C   0  0  0  0  0  0  0  0  0  0  0  0
    0.1707    1.6187   -0.3428 C   0  0  0  0  0  0  0  0  0  0  0  0
   -0.9880    2.3822   -0.4951 C   0  0  0  0  0  0  0  0  0  0  0  0
    0.1040    0.1430   -0.3569 C   0  0  0  0  0  0  0  0  0  0  0  0
   -0.8852   -0.4577   -0.7201 O   0  0  0  0  0  0  0  0  0  0  0  0
    1.3570   -0.5690    0.1134 C   0  0  2  0  0  0  0  0  0  0  0  0
    1.3915   -0.5957    1.2125 H   0  0  0  0  0  0  0  0  0  0  0  0
    2.5456    0.1840   -0.5058 C   0  0  1  0  0  0  0  0  0  0  0  0
    2.4820    0.3054   -1.5972 H   0  0  0  0  0  0  0  0  0  0  0  0
    2.5518    1.5211   -0.0169 O   0  0  0  0  0  0  0  0  0  0  0  0
    3.8117   -0.5598   -0.1783 C   0  0  0  0  0  0  0  0  0  0  0  0
    3.7970   -1.9010   -0.1642 C   0  0  0  0  0  0  0  0  0  0  0  0
    2.5527   -2.6188   -0.4943 C   0  0  0  0  0  0  0  0  0  0  0  0
    1.3723   -1.9960   -0.3611 C   0  0  0  0  0  0  0  0  0  0  0  0
    0.2162   -2.6401   -0.6480 O   0  0  0  0  0  0  0  0  0  0  0  0
    2.6064   -4.0449   -0.9784 C   0  0  1  0  0  0  0  0  0  0  0  0
    1.6012   -4.4914   -0.9676 H   0  0  0  0  0  0  0  0  0  0  0  0
    3.2309   -4.0866   -2.3755 C   0  0  2  0  0  0  0  0  0  0  0  0
    2.6570   -3.4791   -3.0907 H   0  0  0  0  0  0  0  0  0  0  0  0
    3.3375   -5.5439   -2.8354 C   0  0  1  0  0  0  0  0  0  0  0  0
    3.7729   -5.6191   -3.8428 H   0  0  0  0  0  0  0  0  0  0  0  0
    4.1555   -6.3334   -1.8088 C   0  0  1  0  0  0  0  0  0  0  0  0
    5.2029   -5.9982   -1.7850 H   0  0  0  0  0  0  0  0  0  0  0  0
    3.4950   -6.2049   -0.4337 C   0  0  2  0  0  0  0  0  0  0  0  0
    2.4624   -6.5836   -0.4490 H   0  0  0  0  0  0  0  0  0  0  0  0
    3.3991   -4.8236   -0.0800 O   0  0  0  0  0  0  0  0  0  0  0  0
    4.3390   -6.9411    0.6086 C   0  0  0  0  0  0  0  0  0  0  0  0
    3.6653   -6.9196    1.8686 O   0  0  0  0  0  0  0  0  0  0  0  0
    4.2014   -7.7099   -2.1898 O   0  0  0  0  0  0  0  0  0  0  0  0
    2.0290   -6.1086   -2.9404 O   0  0  0  0  0  0  0  0  0  0  0  0
    4.5346   -3.5028   -2.3334 O   0  0  0  0  0  0  0  0  0  0  0  0
    4.9224   -2.5936    0.1520 O   0  0  0  0  0  0  0  0  0  0  0  0
   -1.7956    4.3538   -0.6042 H   0  0  0  0  0  0  0  0  0  0  0  0
    0.3797    5.4575   -0.2946 H   0  0  0  0  0  0  0  0  0  0  0  0
    2.4254    4.1305   -0.0193 H   0  0  0  0  0  0  0  0  0  0  0  0
   -1.9444    1.8981   -0.6264 H   0  0  0  0  0  0  0  0  0  0  0  0
    4.7417   -0.0176    0.0478 H   0  0  0  0  0  0  0  0  0  0  0  0
    0.2395   -3.6839   -0.9943 H   0  0  0  0  0  0  0  0  0  0  0  0
    4.4878   -7.9834    0.2901 H   0  0  0  0  0  0  0  0  0  0  0  0
    5.3157   -6.4447    0.7066 H   0  0  0  0  0  0  0  0  0  0  0  0
    4.1222   -7.4026    2.7449 H   0  0  0  0  0  0  0  0  0  0  0  0
    4.7481   -8.4346   -1.5686 H   0  0  0  0  0  0  0  0  0  0  0  0
    1.9051   -7.1540   -3.2594 H   0  0  0  0  0  0  0  0  0  0  0  0
    5.1406   -3.4436   -3.2495 H   0  0  0  0  0  0  0  0  0  0  0  0
    4.9066   -3.6934    0.1625 H   0  0  0  0  0  0  0  0  0  0  0  0
  1  6  2  0  0  0  0
  1  2  1  0  0  0  0
  1 36  1  0  0  0  0
  2  3  2  0  0  0  0
  2 37  1  0  0  0  0
  3  4  1  0  0  0  0
  3 38  1  0  0  0  0
  4 13  1  0  0  0  0
  4  5  2  0  0  0  0
  5  6  1  0  0  0  0
  5  7  1  0  0  0  0
  6 39  1  0  0  0  0
  7  8  2  0  0  0  0
  7  9  1  0  0  0  0
  9 10  1  1  0  0  0
  9 17  1  0  0  0  0
  9 11  1  0  0  0  0
 11 12  1  6  0  0  0
 11 13  1  0  0  0  0
 11 14  1  0  0  0  0
 14 15  2  0  0  0  0
 14 40  1  0  0  0  0
 15 16  1  0  0  0  0
 15 35  1  0  0  0  0
 16 17  2  0  0  0  0
 16 19  1  0  0  0  0
 17 18  1  0  0  0  0
 18 41  1  0  0  0  0
 19 20  1  6  0  0  0
 19 29  1  0  0  0  0
 19 21  1  0  0  0  0
 21 22  1  6  0  0  0
 21 23  1  0  0  0  0
 21 34  1  0  0  0  0
 23 24  1  6  0  0  0
 23 25  1  0  0  0  0
 23 33  1  0  0  0  0
 25 26  1  1  0  0  0
 25 27  1  0  0  0  0
 25 32  1  0  0  0  0
 27 28  1  6  0  0  0
 27 29  1  0  0  0  0
 27 30  1  0  0  0  0
 30 31  1  0  0  0  0
 30 42  1  0  0  0  0
 30 43  1  0  0  0  0
 31 44  1  0  0  0  0
 32 45  1  0  0  0  0
 33 46  1  0  0  0  0
 34 47  1  0  0  0  0
 35 48  1  0  0  0  0
M  END
>  <cansmi>
OC[C@H]1O[C@H]([C@H]([C@@H]([C@@H]1O)O)O)C1=C(O)[C@H]2[C@H](C=C1O)Oc1c(C2=O)cccc1

>  <HBA2>
9

>  <HBD>
6

>  <logP>
-0.6435

>  <TPSA>
156.91

>  <MW>
392.357

$$$$
ZINC39205376
 OpenBabel02121623173D

 48 51  0  0  1  0  0  0  0  0999 V2000
   -0.0703    1.8462   -0.9793 C   0  0  0  0  0  0  0  0  0  0  0  0
    1.1494    2.5146   -0.8630 C   0  0  0  0  0  0  0  0  0  0  0  0
    2.3605    1.8050   -0.9028 C   0  0  0  0  0  0  0  0  0  0  0  0
    2.3287    0.4233   -1.0490 C   0  0  0  0  0  0  0  0  0  0  0  0
    1.1179   -0.2360   -1.1605 C   0  0  0  0  0  0  0  0  0  0  0  0
   -0.0846    0.4748   -1.1284 C   0  0  0  0  0  0  0  0  0  0  0  0
   -1.2687   -0.1851   -1.2433 O   0  0  0  0  0  0  0  0  0  0  0  0
    1.0976   -1.5863   -1.3034 O   0  0  0  0  0  0  0  0  0  0  0  0
    3.5449    2.4440   -0.8086 O   0  0  0  0  0  0  0  0  0  0  0  0
    3.6358    3.7114   -0.3575 C   0  0  0  0  0  0  0  0  0  0  0  0
    4.8638    4.2166    0.0464 C   0  0  0  0  0  0  0  0  0  0  0  0
    4.9657    5.5217    0.5023 C   0  0  0  0  0  0  0  0  0  0  0  0
    3.8458    6.3438    0.5605 C   0  0  0  0  0  0  0  0  0  0  0  0
    2.6119    5.8601    0.1658 C   0  0  0  0  0  0  0  0  0  0  0  0
    2.5016    4.5390   -0.2869 C   0  0  0  0  0  0  0  0  0  0  0  0
    1.1986    3.9813   -0.6918 C   0  0  0  0  0  0  0  0  0  0  0  0
    0.2223    4.6864   -0.8742 O   0  0  0  0  0  0  0  0  0  0  0  0
    1.5164    6.6590    0.2166 O   0  0  0  0  0  0  0  0  0  0  0  0
    3.9767    7.7616    1.0542 C   0  0  2  0  0  0  0  0  0  0  0  0
    2.9880    8.1600    1.2820 H   0  0  0  0  0  0  0  0  0  0  0  0
    4.6361    8.6203   -0.0283 C   0  0  1  0  0  0  0  0  0  0  0  0
    4.0009    8.6411   -0.9139 H   0  0  0  0  0  0  0  0  0  0  0  0
    4.8203   10.0451    0.5030 C   0  0  2  0  0  0  0  0  0  0  0  0
    5.3399   10.6477   -0.2419 H   0  0  0  0  0  0  0  0  0  0  0  0
    5.6490    9.9951    1.7903 C   0  0  1  0  0  0  0  0  0  0  0  0
    5.7382   10.9990    2.2053 H   0  0  0  0  0  0  0  0  0  0  0  0
    4.9505    9.0833    2.8025 C   0  0  2  0  0  0  0  0  0  0  0  0
    5.5573    9.0099    3.7050 H   0  0  0  0  0  0  0  0  0  0  0  0
    4.7825    7.7830    2.2341 O   0  0  0  0  0  0  0  0  0  0  0  0
    3.5808    9.6670    3.1548 C   0  0  0  0  0  0  0  0  0  0  0  0
    2.9943    8.9024    4.2100 O   0  0  0  0  0  0  0  0  0  0  0  0
    6.9503    9.4806    1.5008 O   0  0  0  0  0  0  0  0  0  0  0  0
    3.5420   10.6220    0.7775 O   0  0  0  0  0  0  0  0  0  0  0  0
    5.9094    8.0672   -0.3668 O   0  0  0  0  0  0  0  0  0  0  0  0
    6.1722    6.0023    0.8967 O   0  0  0  0  0  0  0  0  0  0  0  0
   -0.9976    2.3989   -0.9482 H   0  0  0  0  0  0  0  0  0  0  0  0
    3.2516   -0.1370   -1.0754 H   0  0  0  0  0  0  0  0  0  0  0  0
   -1.5789   -0.2807   -2.1542 H   0  0  0  0  0  0  0  0  0  0  0  0
    1.0612   -2.0698   -0.4667 H   0  0  0  0  0  0  0  0  0  0  0  0
    5.7430    3.5906    0.0057 H   0  0  0  0  0  0  0  0  0  0  0  0
    1.3573    7.1604   -0.5947 H   0  0  0  0  0  0  0  0  0  0  0  0
    3.6987   10.7013    3.4778 H   0  0  0  0  0  0  0  0  0  0  0  0
    2.9343    9.6317    2.2779 H   0  0  0  0  0  0  0  0  0  0  0  0
    2.1222    9.2165    4.4855 H   0  0  0  0  0  0  0  0  0  0  0  0
    7.4486   10.0081    0.8616 H   0  0  0  0  0  0  0  0  0  0  0  0
    3.5834   11.5261    1.1180 H   0  0  0  0  0  0  0  0  0  0  0  0
    6.3845    8.5619   -1.0484 H   0  0  0  0  0  0  0  0  0  0  0  0
    6.6815    6.4170    0.1870 H   0  0  0  0  0  0  0  0  0  0  0  0
  1  6  2  0  0  0  0
  1  2  1  0  0  0  0
  1 36  1  0  0  0  0
  2 16  1  0  0  0  0
  2  3  2  0  0  0  0
  3  4  1  0  0  0  0
  3  9  1  0  0  0  0
  4  5  2  0  0  0  0
  4 37  1  0  0  0  0
  5  6  1  0  0  0  0
  5  8  1  0  0  0  0
  6  7  1  0  0  0  0
  7 38  1  0  0  0  0
  8 39  1  0  0  0  0
  9 10  1  0  0  0  0
 10 15  2  0  0  0  0
 10 11  1  0  0  0  0
 11 12  2  0  0  0  0
 11 40  1  0  0  0  0
 12 13  1  0  0  0  0
 12 35  1  0  0  0  0
 13 14  2  0  0  0  0
 13 19  1  0  0  0  0
 14 15  1  0  0  0  0
 14 18  1  0  0  0  0
 15 16  1  0  0  0  0
 16 17  2  0  0  0  0
 18 41  1  0  0  0  0
 19 20  1  1  0  0  0
 19 29  1  0  0  0  0
 19 21  1  0  0  0  0
 21 22  1  6  0  0  0
 21 23  1  0  0  0  0
 21 34  1  0  0  0  0
 23 24  1  6  0  0  0
 23 25  1  0  0  0  0
 23 33  1  0  0  0  0
 25 26  1  1  0  0  0
 25 27  1  0  0  0  0
 25 32  1  0  0  0  0
 27 28  1  1  0  0  0
 27 29  1  0  0  0  0
 27 30  1  0  0  0  0
 30 31  1  0  0  0  0
 30 42  1  0  0  0  0
 30 43  1  0  0  0  0
 31 44  1  0  0  0  0
 32 45  1  0  0  0  0
 33 46  1  0  0  0  0
 34 47  1  0  0  0  0
 35 48  1  0  0  0  0
M  END
>  <cansmi>
OC[C@H]1O[C@@H]([C@@H]([C@H]([C@@H]1O)O)O)c1c(O)cc2c(c1O)c(=O)c1c(o2)cc(c(c1)O)O

>  <HBA2>
11

>  <HBD>
8

>  <logP>
-0.7165

>  <TPSA>
201.28

>  <MW>
422.34

$$$$
ZINC71404364
 OpenBabel02121623173D

 40 44  0  0  1  0  0  0  0  0999 V2000
    0.4962    1.1202    1.4457 C   0  0  0  0  0  0  0  0  0  0  0  0
    0.5503   -0.3884    1.1180 C   0  0  1  0  0  0  0  0  0  0  0  0
    0.2307   -0.7839   -0.3280 C   0  0  2  0  0  0  0  0  0  0  0  0
    0.0996   -1.8841   -0.1675 H   0  0  0  0  0  0  0  0  0  0  0  0
    1.3008   -0.7970   -1.3445 C   0  0  1  0  0  0  0  0  0  0  0  0
    1.0682   -0.2926   -2.2828 H   0  0  0  0  0  0  0  0  0  0  0  0
    2.6889   -0.4560   -0.7303 C   0  0  2  0  0  0  0  0  0  0  0  0
    3.4753   -0.7491   -1.4790 H   0  0  0  0  0  0  0  0  0  0  0  0
    2.6952   -1.5166    0.3973 C   0  0  1  0  0  0  0  0  0  0  0  0
    3.7195   -1.7562    0.7277 H   0  0  0  0  0  0  0  0  0  0  0  0
    1.8133   -1.1131    1.5779 C   0  0  2  0  0  0  0  0  0  0  0  0
    1.3549   -2.3613    2.3486 C   0  0  0  0  0  0  0  0  0  0  0  0
   -0.1625   -2.3424    2.4748 C   0  0  2  0  0  0  0  0  0  0  0  0
   -0.6527   -3.3124    2.4228 H   0  0  0  0  0  0  0  0  0  0  0  0
   -0.6914   -1.1203    1.7208 C   0  0  1  0  0  0  0  0  0  0  0  0
   -0.8895   -1.3003    3.0995 O   0  0  0  0  0  0  0  0  0  0  0  0
   -1.6963   -1.1385    0.5936 C   0  0  0  0  0  0  0  0  0  0  0  0
   -2.7977   -1.6307    0.6186 O   0  0  0  0  0  0  0  0  0  0  0  0
   -1.1321   -0.4850   -0.4839 O   0  0  0  0  0  0  0  0  0  0  0  0
    2.5687   -0.2686    2.4788 O   0  0  0  0  0  0  0  0  0  0  0  0
    2.0898   -2.6918   -0.3641 C   0  0  0  0  0  0  0  0  0  0  0  0
    2.1056   -3.8452   -0.0193 O   0  0  0  0  0  0  0  0  0  0  0  0
    1.5452   -2.2453   -1.5231 O   0  0  0  0  0  0  0  0  0  0  0  0
    2.9423    0.9784   -0.3453 C   0  0  0  0  0  0  0  0  0  0  0  0
    3.9664    1.0283    0.7903 C   0  0  0  0  0  0  0  0  0  0  0  0
    3.4841    1.7430   -1.5547 C   0  0  0  0  0  0  0  0  0  0  0  0
    1.7200    1.5781    0.0889 O   0  0  0  0  0  0  0  0  0  0  0  0
    1.5038    1.4851    1.6448 H   0  0  0  0  0  0  0  0  0  0  0  0
    0.0747    1.6612    0.5986 H   0  0  0  0  0  0  0  0  0  0  0  0
   -0.1280    1.2788    2.3251 H   0  0  0  0  0  0  0  0  0  0  0  0
    1.6834   -3.2689    1.8475 H   0  0  0  0  0  0  0  0  0  0  0  0
    1.8018   -2.3430    3.3521 H   0  0  0  0  0  0  0  0  0  0  0  0
    3.3837   -0.6729    2.8066 H   0  0  0  0  0  0  0  0  0  0  0  0
    4.8987    0.5709    0.4591 H   0  0  0  0  0  0  0  0  0  0  0  0
    4.1498    2.0660    1.0689 H   0  0  0  0  0  0  0  0  0  0  0  0
    3.5804    0.4836    1.6519 H   0  0  0  0  0  0  0  0  0  0  0  0
    2.7201    1.7835   -2.3310 H   0  0  0  0  0  0  0  0  0  0  0  0
    3.7508    2.7563   -1.2542 H   0  0  0  0  0  0  0  0  0  0  0  0
    4.3674    1.2340   -1.9404 H   0  0  0  0  0  0  0  0  0  0  0  0
    1.0132    1.5520   -0.5704 H   0  0  0  0  0  0  0  0  0  0  0  0
  1 28  1  0  0  0  0
  1 29  1  0  0  0  0
  1 30  1  0  0  0  0
  2  1  1  1  0  0  0
  2 11  1  0  0  0  0
  2 15  1  0  0  0  0
  2  3  1  0  0  0  0
  3  4  1  1  0  0  0
  3 19  1  0  0  0  0
  3  5  1  0  0  0  0
  5  6  1  6  0  0  0
  5 23  1  0  0  0  0
  5  7  1  0  0  0  0
  7  8  1  6  0  0  0
  7  9  1  0  0  0  0
  7 24  1  0  0  0  0
  9 10  1  1  0  0  0
  9 11  1  0  0  0  0
  9 21  1  0  0  0  0
 11 12  1  0  0  0  0
 11 20  1  1  0  0  0
 12 13  1  0  0  0  0
 12 31  1  0  0  0  0
 12 32  1  0  0  0  0
 13 14  1  6  0  0  0
 13 16  1  0  0  0  0
 13 15  1  0  0  0  0
 15 16  1  1  0  0  0
 15 17  1  0  0  0  0
 17 18  2  0  0  0  0
 17 19  1  0  0  0  0
 20 33  1  0  0  0  0
 21 22  2  0  0  0  0
 21 23  1  0  0  0  0
 24 25  1  0  0  0  0
 24 26  1  0  0  0  0
 24 27  1  0  0  0  0
 25 34  1  0  0  0  0
 25 35  1  0  0  0  0
 25 36  1  0  0  0  0
 26 37  1  0  0  0  0
 26 38  1  0  0  0  0
 26 39  1  0  0  0  0
 27 40  1  0  0  0  0
M  END
>  <cansmi>
O=C1O[C@@H]2[C@H]([C@H]1[C@]1(O)C[C@@H]3[C@]4([C@@]1([C@H]2OC4=O)C)O3)C(O)(C)C

>  <HBA2>
7

>  <HBD>
2

>  <logP>
-0.8672

>  <TPSA>
105.59

>  <MW>
310.299

$$$$
ZINC02566155
 OpenBabel02121623173D

 35 37  0  0  0  0  0  0  0  0999 V2000
   -0.6441    1.5578    0.6187 C   0  0  0  0  0  0  0  0  0  0  0  0
   -0.4584    0.1537    0.4288 O   0  0  0  0  0  0  0  0  0  0  0  0
    0.0742   -0.2429   -0.7551 C   0  0  0  0  0  0  0  0  0  0  0  0
    0.5100    0.7019   -1.6625 C   0  0  0  0  0  0  0  0  0  0  0  0
    1.0568    0.3034   -2.8763 C   0  0  0  0  0  0  0  0  0  0  0  0
    1.1639   -1.0682   -3.1757 C   0  0  0  0  0  0  0  0  0  0  0  0
    1.7733   -1.1309   -4.5116 C   0  0  0  0  0  0  0  0  0  0  0  0
    1.9738    0.1377   -4.8899 C   0  0  0  0  0  0  0  0  0  0  0  0
    1.5534    0.9813   -3.9304 O   0  0  0  0  0  0  0  0  0  0  0  0
    0.7270   -2.0231   -2.2663 C   0  0  0  0  0  0  0  0  0  0  0  0
    0.1844   -1.6149   -1.0480 C   0  0  0  0  0  0  0  0  0  0  0  0
   -0.2767   -2.6167   -0.0732 C   0  0  0  0  0  0  0  0  0  0  0  0
   -1.3375   -3.4028   -0.3623 O   0  5  0  0  0  0  0  0  0  0  0  0
    0.3670   -2.7519    1.1229 C   0  0  0  0  0  0  0  0  0  0  0  0
    1.5556   -2.0393    1.3666 C   0  0  0  0  0  0  0  0  0  0  0  0
    2.0694   -1.3875    0.4740 O   0  0  0  0  0  0  0  0  0  0  0  0
    2.1821   -2.0812    2.7073 C   0  0  0  0  0  0  0  0  0  0  0  0
    1.6767   -2.9326    3.6905 C   0  0  0  0  0  0  0  0  0  0  0  0
    2.2653   -2.9674    4.9377 C   0  0  0  0  0  0  0  0  0  0  0  0
    3.3542   -2.1600    5.2148 C   0  0  0  0  0  0  0  0  0  0  0  0
    3.8601   -1.3135    4.2442 C   0  0  0  0  0  0  0  0  0  0  0  0
    3.2840   -1.2737    2.9912 C   0  0  0  0  0  0  0  0  0  0  0  0
    0.3261    2.0545    0.6292 H   0  0  0  0  0  0  0  0  0  0  0  0
   -1.2482    1.9578   -0.1957 H   0  0  0  0  0  0  0  0  0  0  0  0
   -1.1519    1.7322    1.5673 H   0  0  0  0  0  0  0  0  0  0  0  0
    0.4255    1.7529   -1.4287 H   0  0  0  0  0  0  0  0  0  0  0  0
    2.0120   -2.0211   -5.0746 H   0  0  0  0  0  0  0  0  0  0  0  0
    2.4108    0.4401   -5.8301 H   0  0  0  0  0  0  0  0  0  0  0  0
    0.8105   -3.0744   -2.4995 H   0  0  0  0  0  0  0  0  0  0  0  0
   -0.0359   -3.4058    1.8821 H   0  0  0  0  0  0  0  0  0  0  0  0
    0.8263   -3.5628    3.4756 H   0  0  0  0  0  0  0  0  0  0  0  0
    1.8750   -3.6259    5.6996 H   0  0  0  0  0  0  0  0  0  0  0  0
    3.8110   -2.1903    6.1930 H   0  0  0  0  0  0  0  0  0  0  0  0
    4.7100   -0.6855    4.4668 H   0  0  0  0  0  0  0  0  0  0  0  0
    3.6824   -0.6156    2.2331 H   0  0  0  0  0  0  0  0  0  0  0  0
  1  2  1  0  0  0  0
  1 23  1  0  0  0  0
  1 24  1  0  0  0  0
  1 25  1  0  0  0  0
  2  3  1  0  0  0  0
  3 11  2  0  0  0  0
  3  4  1  0  0  0  0
  4  5  2  0  0  0  0
  4 26  1  0  0  0  0
  5  9  1  0  0  0  0
  5  6  1  0  0  0  0
  6  7  1  0  0  0  0
  6 10  2  0  0  0  0
  7  8  2  0  0  0  0
  7 27  1  0  0  0  0
  8  9  1  0  0  0  0
  8 28  1  0  0  0  0
 10 11  1  0  0  0  0
 10 29  1  0  0  0  0
 11 12  1  0  0  0  0
 12 14  2  0  0  0  0
 12 13  1  0  0  0  0
 14 30  1  0  0  0  0
 14 15  1  0  0  0  0
 15 17  1  0  0  0  0
 15 16  2  0  0  0  0
 17 22  2  0  0  0  0
 17 18  1  0  0  0  0
 18 19  2  0  0  0  0
 18 31  1  0  0  0  0
 19 20  1  0  0  0  0
 19 32  1  0  0  0  0
 20 21  2  0  0  0  0
 20 33  1  0  0  0  0
 21 22  1  0  0  0  0
 21 34  1  0  0  0  0
 22 35  1  0  0  0  0
M  CHG  1  13  -1
M  END
>  <cansmi>
COc1cc2occc2cc1/C(=C\C(=O)c1ccccc1)/[O-]

>  <HBA2>
4

>  <HBD>
0

>  <logP>
4.0957

>  <TPSA>
62.5

>  <MW>
293.293

$$$$
ZINC19203134
 OpenBabel02121623173D

 79 83  0  0  1  0  0  0  0  0999 V2000
    0.6054    1.5953    2.5353 C   0  0  0  0  0  0  0  0  0  0  0  0
    0.7476    0.0829    2.7550 C   0  0  2  0  0  0  0  0  0  0  0  0
   -0.3929   -0.3612    3.6710 C   0  0  0  0  0  0  0  0  0  0  0  0
   -0.2561   -1.8334    4.0426 C   0  0  0  0  0  0  0  0  0  0  0  0
    1.0838   -2.0953    4.7294 C   0  0  2  0  0  0  0  0  0  0  0  0
    2.2240   -1.6630    3.8077 C   0  0  0  0  0  0  0  0  0  0  0  0
    2.0953   -0.1980    3.4111 C   0  0  1  0  0  0  0  0  0  0  0  0
    2.1928    0.4341    4.3044 H   0  0  0  0  0  0  0  0  0  0  0  0
    3.2098    0.1693    2.4485 C   0  0  0  0  0  0  0  0  0  0  0  0
    4.2553    0.8149    2.9772 C   0  0  0  0  0  0  0  0  0  0  0  0
    5.3920    1.2356    2.1446 C   0  0  0  0  0  0  0  0  0  0  0  0
    6.2008    2.0303    2.5730 O   0  0  0  0  0  0  0  0  0  0  0  0
    5.4835    0.6019    0.7691 C   0  0  2  0  0  0  0  0  0  0  0  0
    5.7471   -0.4643    0.9430 H   0  0  0  0  0  0  0  0  0  0  0  0
    6.5942    1.1927   -0.0709 C   0  0  1  0  0  0  0  0  0  0  0  0
    7.9469    0.9219    0.6067 C   0  0  0  0  0  0  0  0  0  0  0  0
    8.3017   -0.5580    0.5147 C   0  0  0  0  0  0  0  0  0  0  0  0
    8.4995   -0.9122   -0.9572 C   0  0  1  0  0  0  0  0  0  0  0  0
    8.7976   -1.9608   -1.0384 H   0  0  0  0  0  0  0  0  0  0  0  0
    7.1933   -0.7054   -1.7293 C   0  0  0  0  0  0  0  0  0  0  0  0
    6.5788    0.6546   -1.4929 C   0  0  1  0  0  0  0  0  0  0  0  0
    7.2355    1.3718   -2.0689 H   0  0  0  0  0  0  0  0  0  0  0  0
    5.2039    0.8086   -2.1257 C   0  0  0  0  0  0  0  0  0  0  0  0
    4.0500    0.2723   -1.2986 C   0  0  0  0  0  0  0  0  0  0  0  0
    4.0918    0.6693    0.1608 C   0  0  1  0  0  0  0  0  0  0  0  0
    3.1276   -0.1891    0.9957 C   0  0  2  0  0  0  0  0  0  0  0  0
    1.7132   -0.0901    0.4429 C   0  0  0  0  0  0  0  0  0  0  0  0
    0.6717   -0.6397    1.4152 C   0  0  0  0  0  0  0  0  0  0  0  0
    3.5671   -1.6531    0.8599 C   0  0  0  0  0  0  0  0  0  0  0  0
    3.5628    2.1114    0.2738 C   0  0  0  0  0  0  0  0  0  0  0  0
    7.5518   -0.8236   -3.2300 C   0  0  0  0  0  0  0  0  0  0  0  0
    6.2487   -1.8608   -1.3983 C   0  0  0  0  0  0  0  0  0  0  0  0
    9.5233   -0.0916   -1.5217 O   0  0  0  0  0  0  0  0  0  0  0  0
    6.4962    2.7305   -0.1630 C   0  0  0  0  0  0  0  0  0  0  0  0
    1.2131   -3.6029    4.9961 C   0  0  0  0  0  0  0  0  0  0  0  0
    1.1602   -1.3639    6.0408 C   0  0  0  0  0  0  0  0  0  0  0  0
    0.3467   -1.5988    6.9180 O   0  0  0  0  0  0  0  0  0  0  0  0
    2.0355   -0.5359    6.2269 O   0  5  0  0  0  0  0  0  0  0  0  0
    1.4097    1.9457    1.8883 H   0  0  0  0  0  0  0  0  0  0  0  0
   -0.3558    1.8056    2.0663 H   0  0  0  0  0  0  0  0  0  0  0  0
    0.6615    2.1088    3.4951 H   0  0  0  0  0  0  0  0  0  0  0  0
   -0.3964    0.2587    4.5675 H   0  0  0  0  0  0  0  0  0  0  0  0
   -1.3429   -0.2089    3.1479 H   0  0  0  0  0  0  0  0  0  0  0  0
   -1.0681   -2.1146    4.7190 H   0  0  0  0  0  0  0  0  0  0  0  0
   -0.3266   -2.4464    3.1407 H   0  0  0  0  0  0  0  0  0  0  0  0
    3.1769   -1.8218    4.3185 H   0  0  0  0  0  0  0  0  0  0  0  0
    2.1948   -2.2988    2.9204 H   0  0  0  0  0  0  0  0  0  0  0  0
    4.2630    1.0316    4.0366 H   0  0  0  0  0  0  0  0  0  0  0  0
    8.7132    1.5159    0.1047 H   0  0  0  0  0  0  0  0  0  0  0  0
    7.8975    1.2236    1.6516 H   0  0  0  0  0  0  0  0  0  0  0  0
    9.2333   -0.7411    1.0574 H   0  0  0  0  0  0  0  0  0  0  0  0
    7.5145   -1.1643    0.9530 H   0  0  0  0  0  0  0  0  0  0  0  0
    5.0265    1.8748   -2.3393 H   0  0  0  0  0  0  0  0  0  0  0  0
    5.1911    0.3110   -3.1072 H   0  0  0  0  0  0  0  0  0  0  0  0
    3.1160    0.7042   -1.7293 H   0  0  0  0  0  0  0  0  0  0  0  0
    3.9413   -0.7980   -1.4450 H   0  0  0  0  0  0  0  0  0  0  0  0
    1.4365    0.9142    0.1467 H   0  0  0  0  0  0  0  0  0  0  0  0
    1.6639   -0.7064   -0.4753 H   0  0  0  0  0  0  0  0  0  0  0  0
    0.8255   -1.7092    1.5583 H   0  0  0  0  0  0  0  0  0  0  0  0
   -0.3257   -0.4915    0.9849 H   0  0  0  0  0  0  0  0  0  0  0  0
    2.8366   -2.2985    1.3477 H   0  0  0  0  0  0  0  0  0  0  0  0
    3.6360   -1.9153   -0.1958 H   0  0  0  0  0  0  0  0  0  0  0  0
    4.5410   -1.7853    1.3314 H   0  0  0  0  0  0  0  0  0  0  0  0
    4.1621    2.7687   -0.3562 H   0  0  0  0  0  0  0  0  0  0  0  0
    2.5233    2.1437   -0.0526 H   0  0  0  0  0  0  0  0  0  0  0  0
    3.6285    2.4423    1.3103 H   0  0  0  0  0  0  0  0  0  0  0  0
    7.9704   -1.8106   -3.4269 H   0  0  0  0  0  0  0  0  0  0  0  0
    6.6529   -0.6838   -3.8304 H   0  0  0  0  0  0  0  0  0  0  0  0
    8.2847   -0.0597   -3.4897 H   0  0  0  0  0  0  0  0  0  0  0  0
    6.0504   -1.8723   -0.3266 H   0  0  0  0  0  0  0  0  0  0  0  0
    5.3118   -1.7306   -1.9398 H   0  0  0  0  0  0  0  0  0  0  0  0
    6.7105   -2.8033   -1.6926 H   0  0  0  0  0  0  0  0  0  0  0  0
   10.3843   -0.1853   -1.0916 H   0  0  0  0  0  0  0  0  0  0  0  0
    6.3594    3.1463    0.8352 H   0  0  0  0  0  0  0  0  0  0  0  0
    7.4126    3.1276   -0.5996 H   0  0  0  0  0  0  0  0  0  0  0  0
    5.6472    3.0036   -0.7898 H   0  0  0  0  0  0  0  0  0  0  0  0
    1.1690   -4.1442    4.0510 H   0  0  0  0  0  0  0  0  0  0  0  0
    2.1654   -3.8049    5.4863 H   0  0  0  0  0  0  0  0  0  0  0  0
    0.3965   -3.9293    5.6401 H   0  0  0  0  0  0  0  0  0  0  0  0
  1 39  1  0  0  0  0
  1 40  1  0  0  0  0
  1 41  1  0  0  0  0
  2  1  1  6  0  0  0
  2  7  1  0  0  0  0
  2 28  1  0  0  0  0
  2  3  1  0  0  0  0
  3  4  1  0  0  0  0
  3 42  1  0  0  0  0
  3 43  1  0  0  0  0
  4  5  1  0  0  0  0
  4 44  1  0  0  0  0
  4 45  1  0  0  0  0
  5  6  1  0  0  0  0
  5 35  1  1  0  0  0
  5 36  1  0  0  0  0
  6  7  1  0  0  0  0
  6 46  1  0  0  0  0
  6 47  1  0  0  0  0
  7  8  1  1  0  0  0
  7  9  1  0  0  0  0
  9 26  1  0  0  0  0
  9 10  2  0  0  0  0
 10 11  1  0  0  0  0
 10 48  1  0  0  0  0
 11 12  2  0  0  0  0
 11 13  1  0  0  0  0
 13 14  1  1  0  0  0
 13 25  1  0  0  0  0
 13 15  1  0  0  0  0
 15 21  1  0  0  0  0
 15 16  1  0  0  0  0
 15 34  1  6  0  0  0
 16 17  1  0  0  0  0
 16 49  1  0  0  0  0
 16 50  1  0  0  0  0
 17 18  1  0  0  0  0
 17 51  1  0  0  0  0
 17 52  1  0  0  0  0
 18 19  1  6  0  0  0
 18 20  1  0  0  0  0
 18 33  1  0  0  0  0
 20 21  1  0  0  0  0
 20 31  1  0  0  0  0
 20 32  1  0  0  0  0
 21 22  1  6  0  0  0
 21 23  1  0  0  0  0
 23 24  1  0  0  0  0
 23 53  1  0  0  0  0
 23 54  1  0  0  0  0
 24 25  1  0  0  0  0
 24 55  1  0  0  0  0
 24 56  1  0  0  0  0
 25 26  1  0  0  0  0
 25 30  1  1  0  0  0
 26 27  1  0  0  0  0
 26 29  1  6  0  0  0
 27 28  1  0  0  0  0
 27 57  1  0  0  0  0
 27 58  1  0  0  0  0
 28 59  1  0  0  0  0
 28 60  1  0  0  0  0
 29 61  1  0  0  0  0
 29 62  1  0  0  0  0
 29 63  1  0  0  0  0
 30 64  1  0  0  0  0
 30 65  1  0  0  0  0
 30 66  1  0  0  0  0
 31 67  1  0  0  0  0
 31 68  1  0  0  0  0
 31 69  1  0  0  0  0
 32 70  1  0  0  0  0
 32 71  1  0  0  0  0
 32 72  1  0  0  0  0
 33 73  1  0  0  0  0
 34 74  1  0  0  0  0
 34 75  1  0  0  0  0
 34 76  1  0  0  0  0
 35 77  1  0  0  0  0
 35 78  1  0  0  0  0
 35 79  1  0  0  0  0
 36 37  2  0  0  0  0
 36 38  1  0  0  0  0
M  CHG  1  38  -1
M  END
>  <cansmi>
O=C1C=C2[C@@H]3C[C@](C)(CC[C@]3(C)CC[C@]2([C@]2([C@H]1[C@@]1(C)CC[C@@H](C([C@H]1CC2)(C)C)O)C)C)C(=O)[O-]

>  <HBA2>
4

>  <HBD>
1

>  <logP>
5.0779

>  <TPSA>
77.43

>  <MW>
469.676

$$$$
ZINC01644304
 OpenBabel02121623173D

 43 43  0  0  1  0  0  0  0  0999 V2000
    9.6340    1.7760   -1.0747 C   0  0  0  0  0  0  0  0  0  0  0  0
    9.0031    1.6124   -2.4335 C   0  0  0  0  0  0  0  0  0  0  0  0
    7.9208    0.8871   -2.5700 C   0  0  0  0  0  0  0  0  0  0  0  0
    7.2389    0.3146   -1.3542 C   0  0  0  0  0  0  0  0  0  0  0  0
    5.7707    0.7447   -1.3429 C   0  0  0  0  0  0  0  0  0  0  0  0
    5.0784    0.1635   -0.1085 C   0  0  1  0  0  0  0  0  0  0  0  0
    5.1623   -1.3637   -0.1484 C   0  0  0  0  0  0  0  0  0  0  0  0
    5.7602    0.6716    1.1357 C   0  0  0  0  0  0  0  0  0  0  0  0
    5.0833    1.3659    2.0165 C   0  0  0  0  0  0  0  0  0  0  0  0
    3.6322    0.5870   -0.0974 C   0  0  0  0  0  0  0  0  0  0  0  0
    2.6731   -0.3282   -0.1213 C   0  0  0  0  0  0  0  0  0  0  0  0
    1.2550    0.0872   -0.1105 C   0  0  0  0  0  0  0  0  0  0  0  0
    0.2439   -0.8748   -0.1356 C   0  0  0  0  0  0  0  0  0  0  0  0
   -1.0778   -0.4832   -0.1307 C   0  0  0  0  0  0  0  0  0  0  0  0
   -1.4039    0.8659   -0.0887 C   0  0  0  0  0  0  0  0  0  0  0  0
   -0.4010    1.8259   -0.0640 C   0  0  0  0  0  0  0  0  0  0  0  0
    0.9231    1.4424   -0.0745 C   0  0  0  0  0  0  0  0  0  0  0  0
   -2.7078    1.2478   -0.0778 O   0  0  0  0  0  0  0  0  0  0  0  0
    9.6173    2.2831   -3.6351 C   0  0  0  0  0  0  0  0  0  0  0  0
    9.8479    0.7940   -0.6528 H   0  0  0  0  0  0  0  0  0  0  0  0
   10.5616    2.3403   -1.1704 H   0  0  0  0  0  0  0  0  0  0  0  0
    8.9487    2.3121   -0.4181 H   0  0  0  0  0  0  0  0  0  0  0  0
    7.5171    0.6995   -3.5540 H   0  0  0  0  0  0  0  0  0  0  0  0
    7.7321    0.6822   -0.4542 H   0  0  0  0  0  0  0  0  0  0  0  0
    7.2986   -0.7734   -1.3826 H   0  0  0  0  0  0  0  0  0  0  0  0
    5.2775    0.3772   -2.2428 H   0  0  0  0  0  0  0  0  0  0  0  0
    5.7109    1.8327   -1.3144 H   0  0  0  0  0  0  0  0  0  0  0  0
    4.6691   -1.7312   -1.0483 H   0  0  0  0  0  0  0  0  0  0  0  0
    6.2083   -1.6701   -0.1564 H   0  0  0  0  0  0  0  0  0  0  0  0
    4.6691   -1.7778    0.7310 H   0  0  0  0  0  0  0  0  0  0  0  0
    6.8070    0.4633    1.3013 H   0  0  0  0  0  0  0  0  0  0  0  0
    4.0366    1.5742    1.8510 H   0  0  0  0  0  0  0  0  0  0  0  0
    5.5719    1.7301    2.9081 H   0  0  0  0  0  0  0  0  0  0  0  0
    3.3770    1.6361   -0.0699 H   0  0  0  0  0  0  0  0  0  0  0  0
    2.9283   -1.3773   -0.1488 H   0  0  0  0  0  0  0  0  0  0  0  0
    0.4968   -1.9244   -0.1634 H   0  0  0  0  0  0  0  0  0  0  0  0
   -1.8607   -1.2268   -0.1547 H   0  0  0  0  0  0  0  0  0  0  0  0
   -0.6586    2.8744   -0.0363 H   0  0  0  0  0  0  0  0  0  0  0  0
    1.7027    2.1897   -0.0553 H   0  0  0  0  0  0  0  0  0  0  0  0
   -3.0858    1.3816   -0.9578 H   0  0  0  0  0  0  0  0  0  0  0  0
    9.1865    3.2770   -3.7562 H   0  0  0  0  0  0  0  0  0  0  0  0
   10.6945    2.3689   -3.4922 H   0  0  0  0  0  0  0  0  0  0  0  0
    9.4152    1.6884   -4.5260 H   0  0  0  0  0  0  0  0  0  0  0  0
  1  2  1  0  0  0  0
  1 20  1  0  0  0  0
  1 21  1  0  0  0  0
  1 22  1  0  0  0  0
  2  3  2  0  0  0  0
  2 19  1  0  0  0  0
  3  4  1  0  0  0  0
  3 23  1  0  0  0  0
  4  5  1  0  0  0  0
  4 24  1  0  0  0  0
  4 25  1  0  0  0  0
  5 26  1  0  0  0  0
  5 27  1  0  0  0  0
  6  5  1  6  0  0  0
  6  7  1  0  0  0  0
  6  8  1  0  0  0  0
  6 10  1  0  0  0  0
  7 28  1  0  0  0  0
  7 29  1  0  0  0  0
  7 30  1  0  0  0  0
  8  9  2  0  0  0  0
  8 31  1  0  0  0  0
  9 32  1  0  0  0  0
  9 33  1  0  0  0  0
 10 11  2  0  0  0  0
 10 34  1  0  0  0  0
 11 12  1  0  0  0  0
 11 35  1  0  0  0  0
 12 17  2  0  0  0  0
 12 13  1  0  0  0  0
 13 14  2  0  0  0  0
 13 36  1  0  0  0  0
 14 15  1  0  0  0  0
 14 37  1  0  0  0  0
 15 16  2  0  0  0  0
 15 18  1  0  0  0  0
 16 17  1  0  0  0  0
 16 38  1  0  0  0  0
 17 39  1  0  0  0  0
 18 40  1  0  0  0  0
 19 41  1  0  0  0  0
 19 42  1  0  0  0  0
 19 43  1  0  0  0  0
M  END
>  <cansmi>
C=C[C@@](/C=C/c1ccc(cc1)O)(CCC=C(C)C)C

>  <HBA2>
1

>  <HBD>
1

>  <logP>
5.3441

>  <TPSA>
20.23

>  <MW>
256.383

$$$$
ZINC18847034
 OpenBabel02121623173D

 29 31  0  0  0  0  0  0  0  0999 V2000
   -0.0168    1.3896    0.0097 C   0  0  0  0  0  0  0  0  0  0  0  0
    1.1691    2.0940    0.0021 C   0  0  0  0  0  0  0  0  0  0  0  0
    2.3804    1.4164   -0.0135 C   0  0  0  0  0  0  0  0  0  0  0  0
    2.4025    0.0286   -0.0216 C   0  0  0  0  0  0  0  0  0  0  0  0
    1.2201   -0.6816   -0.0137 C   0  0  0  0  0  0  0  0  0  0  0  0
    0.0021   -0.0041    0.0020 C   0  0  0  0  0  0  0  0  0  0  0  0
   -1.2714   -0.7647    0.0106 C   0  0  0  0  0  0  0  0  0  0  0  0
   -2.1312   -0.6984   -1.0395 C   0  0  0  0  0  0  0  0  0  0  0  0
   -3.2792   -1.3783   -1.0768 O   0  0  0  0  0  0  0  0  0  0  0  0
   -3.8134   -1.9293    0.0301 C   0  0  0  0  0  0  0  0  0  0  0  0
   -5.1368   -2.3510    0.0428 C   0  0  0  0  0  0  0  0  0  0  0  0
   -5.6660   -2.9233    1.1868 C   0  0  0  0  0  0  0  0  0  0  0  0
   -4.8838   -3.0822    2.3291 C   0  0  0  0  0  0  0  0  0  0  0  0
   -3.5815   -2.6701    2.3350 C   0  0  0  0  0  0  0  0  0  0  0  0
   -3.0361   -2.0875    1.1913 C   0  0  0  0  0  0  0  0  0  0  0  0
   -1.6365   -1.6187    1.1568 C   0  0  0  0  0  0  0  0  0  0  0  0
   -0.8326   -1.9150    2.0240 O   0  0  0  0  0  0  0  0  0  0  0  0
   -6.9599   -3.3335    1.1962 O   0  0  0  0  0  0  0  0  0  0  0  0
    3.5472    2.1133   -0.0214 O   0  0  0  0  0  0  0  0  0  0  0  0
   -0.9590    1.9174    0.0260 H   0  0  0  0  0  0  0  0  0  0  0  0
    1.1551    3.1739    0.0081 H   0  0  0  0  0  0  0  0  0  0  0  0
    3.3466   -0.4958   -0.0346 H   0  0  0  0  0  0  0  0  0  0  0  0
    1.2380   -1.7614   -0.0204 H   0  0  0  0  0  0  0  0  0  0  0  0
   -1.8752   -0.0690   -1.8790 H   0  0  0  0  0  0  0  0  0  0  0  0
   -5.7514   -2.2323   -0.8373 H   0  0  0  0  0  0  0  0  0  0  0  0
   -5.3090   -3.5334    3.2135 H   0  0  0  0  0  0  0  0  0  0  0  0
   -2.9771   -2.7942    3.2214 H   0  0  0  0  0  0  0  0  0  0  0  0
   -7.0838   -4.2506    0.9156 H   0  0  0  0  0  0  0  0  0  0  0  0
    3.8936    2.3103    0.8597 H   0  0  0  0  0  0  0  0  0  0  0  0
  1  6  2  0  0  0  0
  1  2  1  0  0  0  0
  1 20  1  0  0  0  0
  2  3  2  0  0  0  0
  2 21  1  0  0  0  0
  3  4  1  0  0  0  0
  3 19  1  0  0  0  0
  4  5  2  0  0  0  0
  4 22  1  0  0  0  0
  5  6  1  0  0  0  0
  5 23  1  0  0  0  0
  6  7  1  0  0  0  0
  7 16  1  0  0  0  0
  7  8  2  0  0  0  0
  8  9  1  0  0  0  0
  8 24  1  0  0  0  0
  9 10  1  0  0  0  0
 10 15  2  0  0  0  0
 10 11  1  0  0  0  0
 11 12  2  0  0  0  0
 11 25  1  0  0  0  0
 12 13  1  0  0  0  0
 12 18  1  0  0  0  0
 13 14  2  0  0  0  0
 13 26  1  0  0  0  0
 14 15  1  0  0  0  0
 14 27  1  0  0  0  0
 15 16  1  0  0  0  0
 16 17  2  0  0  0  0
 18 28  1  0  0  0  0
 19 29  1  0  0  0  0
M  END
>  <cansmi>
Oc1ccc(cc1)c1coc2c(c1=O)ccc(c2)O

>  <HBA2>
4

>  <HBD>
2

>  <logP>
2.8712

>  <TPSA>
70.67

>  <MW>
254.237

$$$$
ZINC01531846
 OpenBabel02121623173D

 47 47  0  0  1  0  0  0  0  0999 V2000
   -0.0187    1.5258    0.0104 C   0  0  0  0  0  0  0  0  0  0  0  0
    0.0021   -0.0041    0.0020 C   0  0  0  0  0  0  0  0  0  0  0  0
   -1.4333   -0.5336    0.0129 C   0  0  0  0  0  0  0  0  0  0  0  0
   -1.4126   -2.0635    0.0045 C   0  0  0  0  0  0  0  0  0  0  0  0
   -2.8479   -2.5931    0.0153 C   0  0  0  0  0  0  0  0  0  0  0  0
   -2.8272   -4.1229    0.0069 C   0  0  1  0  0  0  0  0  0  0  0  0
   -2.2249   -4.4827    0.8411 H   0  0  0  0  0  0  0  0  0  0  0  0
   -4.2559   -4.6531    0.1434 C   0  0  0  0  0  0  0  0  0  0  0  0
   -4.2253   -6.1554    0.2586 C   0  0  0  0  0  0  0  0  0  0  0  0
   -3.1698   -6.7415    0.2340 O   0  0  0  0  0  0  0  0  0  0  0  0
   -5.5120   -6.9262    0.4044 C   0  0  0  0  0  0  0  0  0  0  0  0
   -5.2026   -8.4215    0.5005 C   0  0  0  0  0  0  0  0  0  0  0  0
   -6.4893   -9.1924    0.6463 C   0  0  0  0  0  0  0  0  0  0  0  0
   -7.0018   -9.4472    1.9048 C   0  0  0  0  0  0  0  0  0  0  0  0
   -8.1818  -10.1539    2.0439 C   0  0  0  0  0  0  0  0  0  0  0  0
   -8.8539  -10.6081    0.9205 C   0  0  0  0  0  0  0  0  0  0  0  0
   -8.3383  -10.3512   -0.3462 C   0  0  0  0  0  0  0  0  0  0  0  0
   -7.1576   -9.6381   -0.4788 C   0  0  0  0  0  0  0  0  0  0  0  0
   -8.9942  -10.7949   -1.4518 O   0  0  0  0  0  0  0  0  0  0  0  0
   -8.4064  -10.4943   -2.7192 C   0  0  0  0  0  0  0  0  0  0  0  0
  -10.0145  -11.3038    1.0556 O   0  0  0  0  0  0  0  0  0  0  0  0
   -2.2631   -4.5849   -1.2221 O   0  0  0  0  0  0  0  0  0  0  0  0
    1.0039    1.9031    0.0027 H   0  0  0  0  0  0  0  0  0  0  0  0
   -0.5459    1.8868   -0.8726 H   0  0  0  0  0  0  0  0  0  0  0  0
   -0.5289    1.8773    0.9072 H   0  0  0  0  0  0  0  0  0  0  0  0
    0.5123   -0.3556   -0.8948 H   0  0  0  0  0  0  0  0  0  0  0  0
    0.5293   -0.3651    0.8851 H   0  0  0  0  0  0  0  0  0  0  0  0
   -1.9435   -0.1821    0.9097 H   0  0  0  0  0  0  0  0  0  0  0  0
   -1.9605   -0.1726   -0.8702 H   0  0  0  0  0  0  0  0  0  0  0  0
   -0.9024   -2.4150   -0.8923 H   0  0  0  0  0  0  0  0  0  0  0  0
   -0.8854   -2.4246    0.8875 H   0  0  0  0  0  0  0  0  0  0  0  0
   -3.3581   -2.2415    0.9121 H   0  0  0  0  0  0  0  0  0  0  0  0
   -3.3751   -2.2320   -0.8677 H   0  0  0  0  0  0  0  0  0  0  0  0
   -4.7169   -4.2296    1.0358 H   0  0  0  0  0  0  0  0  0  0  0  0
   -4.8348   -4.3677   -0.7349 H   0  0  0  0  0  0  0  0  0  0  0  0
   -6.0286   -6.6033    1.3083 H   0  0  0  0  0  0  0  0  0  0  0  0
   -6.1465   -6.7414   -0.4624 H   0  0  0  0  0  0  0  0  0  0  0  0
   -4.6861   -8.7445   -0.4034 H   0  0  0  0  0  0  0  0  0  0  0  0
   -4.5681   -8.6063    1.3673 H   0  0  0  0  0  0  0  0  0  0  0  0
   -6.4790   -9.0938    2.7812 H   0  0  0  0  0  0  0  0  0  0  0  0
   -8.5796  -10.3523    3.0282 H   0  0  0  0  0  0  0  0  0  0  0  0
   -6.7572   -9.4341   -1.4609 H   0  0  0  0  0  0  0  0  0  0  0  0
   -9.0286  -10.9043   -3.5147 H   0  0  0  0  0  0  0  0  0  0  0  0
   -8.3309   -9.4134   -2.8375 H   0  0  0  0  0  0  0  0  0  0  0  0
   -7.4113  -10.9360   -2.7720 H   0  0  0  0  0  0  0  0  0  0  0  0
  -10.8068  -10.7495    1.0623 H   0  0  0  0  0  0  0  0  0  0  0  0
   -2.7489   -4.3018   -2.0088 H   0  0  0  0  0  0  0  0  0  0  0  0
  1  2  1  0  0  0  0
  1 23  1  0  0  0  0
  1 24  1  0  0  0  0
  1 25  1  0  0  0  0
  2  3  1  0  0  0  0
  2 26  1  0  0  0  0
  2 27  1  0  0  0  0
  3  4  1  0  0  0  0
  3 28  1  0  0  0  0
  3 29  1  0  0  0  0
  4  5  1  0  0  0  0
  4 30  1  0  0  0  0
  4 31  1  0  0  0  0
  5  6  1  0  0  0  0
  5 32  1  0  0  0  0
  5 33  1  0  0  0  0
  6  7  1  1  0  0  0
  6  8  1  0  0  0  0
  6 22  1  0  0  0  0
  8  9  1  0  0  0  0
  8 34  1  0  0  0  0
  8 35  1  0  0  0  0
  9 10  2  0  0  0  0
  9 11  1  0  0  0  0
 11 12  1  0  0  0  0
 11 36  1  0  0  0  0
 11 37  1  0  0  0  0
 12 13  1  0  0  0  0
 12 38  1  0  0  0  0
 12 39  1  0  0  0  0
 13 18  2  0  0  0  0
 13 14  1  0  0  0  0
 14 15  2  0  0  0  0
 14 40  1  0  0  0  0
 15 16  1  0  0  0  0
 15 41  1  0  0  0  0
 16 17  2  0  0  0  0
 16 21  1  0  0  0  0
 17 18  1  0  0  0  0
 17 19  1  0  0  0  0
 18 42  1  0  0  0  0
 19 20  1  0  0  0  0
 20 43  1  0  0  0  0
 20 44  1  0  0  0  0
 20 45  1  0  0  0  0
 21 46  1  0  0  0  0
 22 47  1  0  0  0  0
M  END
>  <cansmi>
CCCCC[C@@H](CC(=O)CCc1ccc(c(c1)OC)O)O

>  <HBA2>
4

>  <HBD>
2

>  <logP>
3.2338

>  <TPSA>
66.76

>  <MW>
294.386

$$$$
ZINC01531669
 OpenBabel02121623173D

 51 53  0  0  0  0  0  0  0  0999 V2000
   -0.0359    1.4012   -0.2458 C   0  0  0  0  0  0  0  0  0  0  0  0
   -0.0157   -0.0144   -0.0513 O   0  0  0  0  0  0  0  0  0  0  0  0
   -1.2129   -0.6562   -0.0667 C   0  0  0  0  0  0  0  0  0  0  0  0
   -2.3819    0.0638   -0.2710 C   0  0  0  0  0  0  0  0  0  0  0  0
   -3.5990   -0.5825   -0.2880 C   0  0  0  0  0  0  0  0  0  0  0  0
   -3.6582   -1.9659   -0.0992 C   0  0  0  0  0  0  0  0  0  0  0  0
   -2.4810   -2.6907    0.1066 C   0  0  0  0  0  0  0  0  0  0  0  0
   -1.2639   -2.0369    0.1171 C   0  0  0  0  0  0  0  0  0  0  0  0
   -0.1161   -2.7399    0.3114 O   0  0  0  0  0  0  0  0  0  0  0  0
   -0.2428   -4.1517    0.4929 C   0  0  0  0  0  0  0  0  0  0  0  0
   -4.9599   -2.6595   -0.1165 C   0  0  0  0  0  0  0  0  0  0  0  0
   -6.0882   -1.9280   -0.3241 C   0  0  0  0  0  0  0  0  0  0  0  0
   -7.3459   -2.5753   -0.3442 C   0  0  0  0  0  0  0  0  0  0  0  0
   -8.3778   -1.9500   -0.5280 O   0  0  0  0  0  0  0  0  0  0  0  0
   -7.3618   -4.0333   -0.1350 C   0  0  0  0  0  0  0  0  0  0  0  0
   -6.1380   -4.6943    0.0710 C   0  0  0  0  0  0  0  0  0  0  0  0
   -4.9856   -3.9887    0.0676 O   0  0  0  0  0  0  0  0  0  0  0  0
   -6.1289   -6.0691    0.2703 C   0  0  0  0  0  0  0  0  0  0  0  0
   -7.3221   -6.7794    0.2651 C   0  0  0  0  0  0  0  0  0  0  0  0
   -8.5349   -6.1254    0.0611 C   0  0  0  0  0  0  0  0  0  0  0  0
   -8.5609   -4.7544   -0.1397 C   0  0  0  0  0  0  0  0  0  0  0  0
   -9.7433   -4.1144   -0.3387 O   0  0  0  0  0  0  0  0  0  0  0  0
  -10.1941   -3.9896   -1.6890 C   0  0  0  0  0  0  0  0  0  0  0  0
   -9.6971   -6.8346    0.0586 O   0  0  0  0  0  0  0  0  0  0  0  0
  -10.3622   -6.9946    1.3132 C   0  0  0  0  0  0  0  0  0  0  0  0
   -7.3064   -8.1247    0.4603 O   0  0  0  0  0  0  0  0  0  0  0  0
   -7.1842   -8.9474   -0.7017 C   0  0  0  0  0  0  0  0  0  0  0  0
   -4.9499   -6.7201    0.4703 O   0  0  0  0  0  0  0  0  0  0  0  0
   -4.4982   -6.8441    1.8204 C   0  0  0  0  0  0  0  0  0  0  0  0
    0.9828    1.7873   -0.2110 H   0  0  0  0  0  0  0  0  0  0  0  0
   -0.4775    1.6283   -1.2162 H   0  0  0  0  0  0  0  0  0  0  0  0
   -0.6285    1.8677    0.5412 H   0  0  0  0  0  0  0  0  0  0  0  0
   -2.3376    1.1330   -0.4167 H   0  0  0  0  0  0  0  0  0  0  0  0
   -4.5071   -0.0198   -0.4469 H   0  0  0  0  0  0  0  0  0  0  0  0
   -2.5223   -3.7600    0.2529 H   0  0  0  0  0  0  0  0  0  0  0  0
   -0.8604   -4.3515    1.3685 H   0  0  0  0  0  0  0  0  0  0  0  0
   -0.7095   -4.5909   -0.3888 H   0  0  0  0  0  0  0  0  0  0  0  0
    0.7449   -4.5896    0.6374 H   0  0  0  0  0  0  0  0  0  0  0  0
   -6.0241   -0.8601   -0.4722 H   0  0  0  0  0  0  0  0  0  0  0  0
  -10.3214   -4.9815   -2.1227 H   0  0  0  0  0  0  0  0  0  0  0  0
  -11.1469   -3.4605   -1.7065 H   0  0  0  0  0  0  0  0  0  0  0  0
   -9.4580   -3.4317   -2.2677 H   0  0  0  0  0  0  0  0  0  0  0  0
   -9.7349   -7.5807    1.9848 H   0  0  0  0  0  0  0  0  0  0  0  0
  -10.5490   -6.0149    1.7530 H   0  0  0  0  0  0  0  0  0  0  0  0
  -11.3101   -7.5102    1.1588 H   0  0  0  0  0  0  0  0  0  0  0  0
   -7.9765   -8.6989   -1.4078 H   0  0  0  0  0  0  0  0  0  0  0  0
   -6.2144   -8.7752   -1.1685 H   0  0  0  0  0  0  0  0  0  0  0  0
   -7.2685   -9.9957   -0.4151 H   0  0  0  0  0  0  0  0  0  0  0  0
   -3.5143   -7.3130    1.8327 H   0  0  0  0  0  0  0  0  0  0  0  0
   -4.4352   -5.8553    2.2747 H   0  0  0  0  0  0  0  0  0  0  0  0
   -5.2006   -7.4586    2.3835 H   0  0  0  0  0  0  0  0  0  0  0  0
  1  2  1  0  0  0  0
  1 30  1  0  0  0  0
  1 31  1  0  0  0  0
  1 32  1  0  0  0  0
  2  3  1  0  0  0  0
  3  8  2  0  0  0  0
  3  4  1  0  0  0  0
  4  5  2  0  0  0  0
  4 33  1  0  0  0  0
  5  6  1  0  0  0  0
  5 34  1  0  0  0  0
  6  7  2  0  0  0  0
  6 11  1  0  0  0  0
  7  8  1  0  0  0  0
  7 35  1  0  0  0  0
  8  9  1  0  0  0  0
  9 10  1  0  0  0  0
 10 36  1  0  0  0  0
 10 37  1  0  0  0  0
 10 38  1  0  0  0  0
 11 17  1  0  0  0  0
 11 12  2  0  0  0  0
 12 13  1  0  0  0  0
 12 39  1  0  0  0  0
 13 14  2  0  0  0  0
 13 15  1  0  0  0  0
 15 21  2  0  0  0  0
 15 16  1  0  0  0  0
 16 17  1  0  0  0  0
 16 18  2  0  0  0  0
 18 19  1  0  0  0  0
 18 28  1  0  0  0  0
 19 20  2  0  0  0  0
 19 26  1  0  0  0  0
 20 21  1  0  0  0  0
 20 24  1  0  0  0  0
 21 22  1  0  0  0  0
 22 23  1  0  0  0  0
 23 40  1  0  0  0  0
 23 41  1  0  0  0  0
 23 42  1  0  0  0  0
 24 25  1  0  0  0  0
 25 43  1  0  0  0  0
 25 44  1  0  0  0  0
 25 45  1  0  0  0  0
 26 27  1  0  0  0  0
 27 46  1  0  0  0  0
 27 47  1  0  0  0  0
 27 48  1  0  0  0  0
 28 29  1  0  0  0  0
 29 49  1  0  0  0  0
 29 50  1  0  0  0  0
 29 51  1  0  0  0  0
M  END
>  <cansmi>
COc1cc(ccc1OC)c1cc(=O)c2c(o1)c(OC)c(c(c2OC)OC)OC

>  <HBA2>
8

>  <HBD>
0

>  <logP>
3.5116

>  <TPSA>
85.59

>  <MW>
402.395

$$$$
ZINC20297438
 OpenBabel02121623173D

 36 37  0  0  0  0  0  0  0  0999 V2000
   12.8785   -5.8327   -0.9441 C   0  0  0  0  0  0  0  0  0  0  0  0
   11.6785   -5.1612   -0.4780 O   0  0  0  0  0  0  0  0  0  0  0  0
   10.8393   -4.6927   -1.4150 C   0  0  0  0  0  0  0  0  0  0  0  0
   11.0989   -4.8389   -2.5860 O   0  0  0  0  0  0  0  0  0  0  0  0
    9.5734   -3.9843   -1.0066 C   0  0  0  0  0  0  0  0  0  0  0  0
    8.8542   -3.5831   -2.1744 O   0  0  0  0  0  0  0  0  0  0  0  0
    7.6795   -2.9259   -1.9805 C   0  0  0  0  0  0  0  0  0  0  0  0
    6.9306   -2.5080   -3.0705 C   0  0  0  0  0  0  0  0  0  0  0  0
    5.7374   -1.8405   -2.8736 C   0  0  0  0  0  0  0  0  0  0  0  0
    5.2878   -1.5890   -1.5858 C   0  0  0  0  0  0  0  0  0  0  0  0
    6.0391   -2.0027   -0.4958 C   0  0  0  0  0  0  0  0  0  0  0  0
    7.2301   -2.6741   -0.6927 C   0  0  0  0  0  0  0  0  0  0  0  0
    4.1132   -0.9320   -1.3920 O   0  0  0  0  0  0  0  0  0  0  0  0
    3.7112   -0.7071   -0.0392 C   0  0  0  0  0  0  0  0  0  0  0  0
    2.3960    0.0285   -0.0217 C   0  0  0  0  0  0  0  0  0  0  0  0
    1.2084   -0.6789   -0.0136 C   0  0  0  0  0  0  0  0  0  0  0  0
    0.0021   -0.0041    0.0020 C   0  0  0  0  0  0  0  0  0  0  0  0
   -0.0167    1.3781    0.0096 C   0  0  0  0  0  0  0  0  0  0  0  0
    1.1709    2.0855    0.0021 C   0  0  0  0  0  0  0  0  0  0  0  0
    2.3773    1.4107   -0.0141 C   0  0  0  0  0  0  0  0  0  0  0  0
   13.4725   -6.1641   -0.0796 H   0  0  0  0  0  0  0  0  0  0  0  0
   13.4744   -5.1374   -1.5536 H   0  0  0  0  0  0  0  0  0  0  0  0
   12.5977   -6.7052   -1.5522 H   0  0  0  0  0  0  0  0  0  0  0  0
    8.9498   -4.6641   -0.4074 H   0  0  0  0  0  0  0  0  0  0  0  0
    9.8266   -3.0963   -0.4088 H   0  0  0  0  0  0  0  0  0  0  0  0
    7.2805   -2.7042   -4.0733 H   0  0  0  0  0  0  0  0  0  0  0  0
    5.1544   -1.5148   -3.7224 H   0  0  0  0  0  0  0  0  0  0  0  0
    5.6912   -1.8030    0.5069 H   0  0  0  0  0  0  0  0  0  0  0  0
    7.8131   -2.9998    0.1560 H   0  0  0  0  0  0  0  0  0  0  0  0
    3.5981   -1.6729    0.4751 H   0  0  0  0  0  0  0  0  0  0  0  0
    4.4749   -0.1052    0.4750 H   0  0  0  0  0  0  0  0  0  0  0  0
    1.2231   -1.7587   -0.0199 H   0  0  0  0  0  0  0  0  0  0  0  0
   -0.9258   -0.5567    0.0079 H   0  0  0  0  0  0  0  0  0  0  0  0
   -0.9592    1.9054    0.0170 H   0  0  0  0  0  0  0  0  0  0  0  0
    1.1563    3.1654    0.0077 H   0  0  0  0  0  0  0  0  0  0  0  0
    3.3051    1.9634   -0.0207 H   0  0  0  0  0  0  0  0  0  0  0  0
  1  2  1  0  0  0  0
  1 21  1  0  0  0  0
  1 22  1  0  0  0  0
  1 23  1  0  0  0  0
  2  3  1  0  0  0  0
  3  4  2  0  0  0  0
  3  5  1  0  0  0  0
  5  6  1  0  0  0  0
  5 24  1  0  0  0  0
  5 25  1  0  0  0  0
  6  7  1  0  0  0  0
  7 12  2  0  0  0  0
  7  8  1  0  0  0  0
  8  9  2  0  0  0  0
  8 26  1  0  0  0  0
  9 10  1  0  0  0  0
  9 27  1  0  0  0  0
 10 11  2  0  0  0  0
 10 13  1  0  0  0  0
 11 12  1  0  0  0  0
 11 28  1  0  0  0  0
 12 29  1  0  0  0  0
 13 14  1  0  0  0  0
 14 15  1  0  0  0  0
 14 30  1  0  0  0  0
 14 31  1  0  0  0  0
 15 20  2  0  0  0  0
 15 16  1  0  0  0  0
 16 17  2  0  0  0  0
 16 32  1  0  0  0  0
 17 18  1  0  0  0  0
 17 33  1  0  0  0  0
 18 19  2  0  0  0  0
 18 34  1  0  0  0  0
 19 20  1  0  0  0  0
 19 35  1  0  0  0  0
 20 36  1  0  0  0  0
M  END
>  <cansmi>
COC(=O)COc1ccc(cc1)OCc1ccccc1

>  <HBA2>
4

>  <HBD>
0

>  <logP>
2.8174

>  <TPSA>
44.76

>  <MW>
272.296

$$$$
ZINC03881799
 OpenBabel02121623173D

 55 57  0  0  1  0  0  0  0  0999 V2000
    0.0072    3.3725   -1.1433 C   0  0  0  0  0  0  0  0  0  0  0  0
    0.1280    1.8535   -1.2811 C   0  0  1  0  0  0  0  0  0  0  0  0
   -1.2622    1.2341   -1.4473 C   0  0  0  0  0  0  0  0  0  0  0  0
   -1.9223    1.7771   -2.7150 C   0  0  0  0  0  0  0  0  0  0  0  0
   -1.0607    1.4142   -3.9269 C   0  0  2  0  0  0  0  0  0  0  0  0
   -0.9605    0.3308   -3.9920 H   0  0  0  0  0  0  0  0  0  0  0  0
    0.3224    2.0465   -3.7686 C   0  0  1  0  0  0  0  0  0  0  0  0
    0.9917    1.5167   -2.4976 C   0  0  1  0  0  0  0  0  0  0  0  0
    1.1098    0.4357   -2.5725 H   0  0  0  0  0  0  0  0  0  0  0  0
    2.3683    2.1723   -2.3566 C   0  0  0  0  0  0  0  0  0  0  0  0
    3.0920    1.5919   -1.1382 C   0  0  0  0  0  0  0  0  0  0  0  0
    2.2005    1.7657    0.0719 C   0  0  0  0  0  0  0  0  0  0  0  0
    2.6520    2.3272    1.1660 C   0  0  0  0  0  0  0  0  0  0  0  0
    0.7744    1.2727   -0.0171 C   0  0  1  0  0  0  0  0  0  0  0  0
    0.7668    0.1840   -0.0702 H   0  0  0  0  0  0  0  0  0  0  0  0
   -0.0046    1.7312    1.2174 C   0  0  0  0  0  0  0  0  0  0  0  0
    0.4884    0.9829    2.4290 C   0  0  0  0  0  0  0  0  0  0  0  0
    0.8343    1.6495    3.5276 C   0  0  0  0  0  0  0  0  0  0  0  0
    0.6561    3.1321    3.7828 C   0  0  2  0  0  0  0  0  0  0  0  0
    1.2187    3.7153    3.0537 H   0  0  0  0  0  0  0  0  0  0  0  0
    1.2271    3.3404    5.1953 C   0  0  0  0  0  0  0  0  0  0  0  0
    1.6785    2.0402    5.6532 O   0  0  0  0  0  0  0  0  0  0  0  0
    1.4581    1.0922    4.7343 C   0  0  0  0  0  0  0  0  0  0  0  0
    1.7420   -0.0806    4.8788 O   0  0  0  0  0  0  0  0  0  0  0  0
   -0.7285    3.4836    3.7458 O   0  0  0  0  0  0  0  0  0  0  0  0
    1.1840    1.6930   -4.9825 C   0  0  0  0  0  0  0  0  0  0  0  0
    0.1788    3.5667   -3.6721 C   0  0  0  0  0  0  0  0  0  0  0  0
   -0.2773    4.0825   -4.9242 O   0  0  0  0  0  0  0  0  0  0  0  0
   -1.6783    1.9088   -5.1169 O   0  0  0  0  0  0  0  0  0  0  0  0
    0.7963    3.8536   -1.7211 H   0  0  0  0  0  0  0  0  0  0  0  0
   -0.9648    3.6950   -1.5166 H   0  0  0  0  0  0  0  0  0  0  0  0
    0.1039    3.6509   -0.0939 H   0  0  0  0  0  0  0  0  0  0  0  0
   -1.8766    1.4853   -0.5827 H   0  0  0  0  0  0  0  0  0  0  0  0
   -1.1696    0.1506   -1.5224 H   0  0  0  0  0  0  0  0  0  0  0  0
   -2.0117    2.8610   -2.6433 H   0  0  0  0  0  0  0  0  0  0  0  0
   -2.9127    1.3360   -2.8273 H   0  0  0  0  0  0  0  0  0  0  0  0
    2.2465    3.2479   -2.2280 H   0  0  0  0  0  0  0  0  0  0  0  0
    2.9557    1.9784   -3.2541 H   0  0  0  0  0  0  0  0  0  0  0  0
    4.0313    2.1223   -0.9817 H   0  0  0  0  0  0  0  0  0  0  0  0
    3.2904    0.5322   -1.2991 H   0  0  0  0  0  0  0  0  0  0  0  0
    2.0162    2.4038    2.0356 H   0  0  0  0  0  0  0  0  0  0  0  0
    3.6601    2.7134    1.1983 H   0  0  0  0  0  0  0  0  0  0  0  0
    0.1453    2.8007    1.3650 H   0  0  0  0  0  0  0  0  0  0  0  0
   -1.0660    1.5296    1.0728 H   0  0  0  0  0  0  0  0  0  0  0  0
    0.5610   -0.0944    2.4057 H   0  0  0  0  0  0  0  0  0  0  0  0
    2.0655    4.0361    5.1606 H   0  0  0  0  0  0  0  0  0  0  0  0
    0.4516    3.7220    5.8594 H   0  0  0  0  0  0  0  0  0  0  0  0
   -0.9004    4.4221    3.9030 H   0  0  0  0  0  0  0  0  0  0  0  0
    1.2887    0.6101   -5.0508 H   0  0  0  0  0  0  0  0  0  0  0  0
    0.7083    2.0698   -5.8879 H   0  0  0  0  0  0  0  0  0  0  0  0
    2.1690    2.1470   -4.8736 H   0  0  0  0  0  0  0  0  0  0  0  0
   -0.5417    3.8148   -2.8927 H   0  0  0  0  0  0  0  0  0  0  0  0
    1.1450    4.0081   -3.4275 H   0  0  0  0  0  0  0  0  0  0  0  0
   -0.3911    5.0427   -4.9361 H   0  0  0  0  0  0  0  0  0  0  0  0
   -2.5608    1.5490   -5.2808 H   0  0  0  0  0  0  0  0  0  0  0  0
  1 30  1  0  0  0  0
  1 31  1  0  0  0  0
  1 32  1  0  0  0  0
  2  1  1  1  0  0  0
  2  8  1  0  0  0  0
  2 14  1  0  0  0  0
  2  3  1  0  0  0  0
  3  4  1  0  0  0  0
  3 33  1  0  0  0  0
  3 34  1  0  0  0  0
  4  5  1  0  0  0  0
  4 35  1  0  0  0  0
  4 36  1  0  0  0  0
  5  6  1  6  0  0  0
  5  7  1  0  0  0  0
  5 29  1  0  0  0  0
  7  8  1  0  0  0  0
  7 26  1  6  0  0  0
  7 27  1  0  0  0  0
  8  9  1  6  0  0  0
  8 10  1  0  0  0  0
 10 11  1  0  0  0  0
 10 37  1  0  0  0  0
 10 38  1  0  0  0  0
 11 12  1  0  0  0  0
 11 39  1  0  0  0  0
 11 40  1  0  0  0  0
 12 13  2  0  0  0  0
 12 14  1  0  0  0  0
 13 41  1  0  0  0  0
 13 42  1  0  0  0  0
 14 15  1  6  0  0  0
 14 16  1  0  0  0  0
 16 17  1  0  0  0  0
 16 43  1  0  0  0  0
 16 44  1  0  0  0  0
 17 18  2  0  0  0  0
 17 45  1  0  0  0  0
 18 23  1  0  0  0  0
 18 19  1  0  0  0  0
 19 20  1  6  0  0  0
 19 21  1  0  0  0  0
 19 25  1  0  0  0  0
 21 22  1  0  0  0  0
 21 46  1  0  0  0  0
 21 47  1  0  0  0  0
 22 23  1  0  0  0  0
 23 24  2  0  0  0  0
 25 48  1  0  0  0  0
 26 49  1  0  0  0  0
 26 50  1  0  0  0  0
 26 51  1  0  0  0  0
 27 28  1  0  0  0  0
 27 52  1  0  0  0  0
 27 53  1  0  0  0  0
 28 54  1  0  0  0  0
 29 55  1  0  0  0  0
M  END
>  <cansmi>
OC[C@]1(C)[C@H](O)CC[C@@]2([C@@H]1CCC(=C)[C@H]2C/C=C/1\[C@@H](O)COC1=O)C

>  <HBA2>
5

>  <HBD>
3

>  <logP>
1.9626

>  <TPSA>
86.99

>  <MW>
350.449

$$$$
ZINC01529772
 OpenBabel02121623173D

 40 42  0  0  0  0  0  0  0  0999 V2000
   -0.0164    1.3945    0.0259 C   0  0  0  0  0  0  0  0  0  0  0  0
    1.1676    2.0986    0.0210 C   0  0  0  0  0  0  0  0  0  0  0  0
    2.3820    1.4253    0.0117 C   0  0  0  0  0  0  0  0  0  0  0  0
    2.4089    0.0292    0.0073 C   0  0  0  0  0  0  0  0  0  0  0  0
    1.2272   -0.6841    0.0121 C   0  0  0  0  0  0  0  0  0  0  0  0
    0.0024   -0.0052    0.0217 C   0  0  0  0  0  0  0  0  0  0  0  0
   -1.2582   -0.7591    0.0272 C   0  0  0  0  0  0  0  0  0  0  0  0
   -2.4410   -0.1003    0.0365 C   0  0  0  0  0  0  0  0  0  0  0  0
   -3.6515   -0.8244    0.0418 C   0  0  0  0  0  0  0  0  0  0  0  0
   -4.8378   -0.1636    0.0510 C   0  0  0  0  0  0  0  0  0  0  0  0
   -6.0526   -0.8903    0.0564 C   0  0  0  0  0  0  0  0  0  0  0  0
   -6.0367   -2.1037   -0.0445 O   0  0  0  0  0  0  0  0  0  0  0  0
   -7.2268   -0.2391    0.1731 N   0  0  0  0  0  0  0  0  0  0  0  0
   -8.4868   -0.9842    0.2988 C   0  0  0  0  0  0  0  0  0  0  0  0
   -9.2283   -0.4922    1.5458 C   0  0  0  0  0  0  0  0  0  0  0  0
   -9.4014    1.0263    1.4655 C   0  0  0  0  0  0  0  0  0  0  0  0
   -8.0263    1.6968    1.4252 C   0  0  0  0  0  0  0  0  0  0  0  0
   -7.2706    1.2295    0.1830 C   0  0  0  0  0  0  0  0  0  0  0  0
    3.7112   -0.3808   -0.0017 O   0  0  0  0  0  0  0  0  0  0  0  0
    4.4727    0.7688   -0.4157 C   0  0  0  0  0  0  0  0  0  0  0  0
    3.6665    1.8845    0.0060 O   0  0  0  0  0  0  0  0  0  0  0  0
   -0.9587    1.9221    0.0376 H   0  0  0  0  0  0  0  0  0  0  0  0
    1.1513    3.1785    0.0239 H   0  0  0  0  0  0  0  0  0  0  0  0
    1.2471   -1.7639    0.0089 H   0  0  0  0  0  0  0  0  0  0  0  0
   -1.2416   -1.8390    0.0239 H   0  0  0  0  0  0  0  0  0  0  0  0
   -2.4577    0.9795    0.0397 H   0  0  0  0  0  0  0  0  0  0  0  0
   -3.6349   -1.9042    0.0385 H   0  0  0  0  0  0  0  0  0  0  0  0
   -4.8544    0.9162    0.0543 H   0  0  0  0  0  0  0  0  0  0  0  0
   -9.1026   -0.8125   -0.5840 H   0  0  0  0  0  0  0  0  0  0  0  0
   -8.2736   -2.0487    0.3967 H   0  0  0  0  0  0  0  0  0  0  0  0
  -10.2077   -0.9678    1.5980 H   0  0  0  0  0  0  0  0  0  0  0  0
   -8.6521   -0.7461    2.4355 H   0  0  0  0  0  0  0  0  0  0  0  0
   -9.9564    1.2812    0.5626 H   0  0  0  0  0  0  0  0  0  0  0  0
   -9.9505    1.3759    2.3398 H   0  0  0  0  0  0  0  0  0  0  0  0
   -8.1502    2.7792    1.3916 H   0  0  0  0  0  0  0  0  0  0  0  0
   -7.4615    1.4222    2.3161 H   0  0  0  0  0  0  0  0  0  0  0  0
   -6.2552    1.6252    0.2045 H   0  0  0  0  0  0  0  0  0  0  0  0
   -7.7850    1.5858   -0.7095 H   0  0  0  0  0  0  0  0  0  0  0  0
    5.4416    0.7862    0.0834 H   0  0  0  0  0  0  0  0  0  0  0  0
    4.5986    0.7750   -1.4984 H   0  0  0  0  0  0  0  0  0  0  0  0
  1  6  2  0  0  0  0
  1  2  1  0  0  0  0
  1 22  1  0  0  0  0
  2  3  2  0  0  0  0
  2 23  1  0  0  0  0
  3 21  1  0  0  0  0
  3  4  1  0  0  0  0
  4  5  2  0  0  0  0
  4 19  1  0  0  0  0
  5  6  1  0  0  0  0
  5 24  1  0  0  0  0
  6  7  1  0  0  0  0
  7  8  2  0  0  0  0
  7 25  1  0  0  0  0
  8  9  1  0  0  0  0
  8 26  1  0  0  0  0
  9 10  2  0  0  0  0
  9 27  1  0  0  0  0
 10 11  1  0  0  0  0
 10 28  1  0  0  0  0
 11 12  2  0  0  0  0
 11 13  1  0  0  0  0
 13 18  1  0  0  0  0
 13 14  1  0  0  0  0
 14 15  1  0  0  0  0
 14 29  1  0  0  0  0
 14 30  1  0  0  0  0
 15 16  1  0  0  0  0
 15 31  1  0  0  0  0
 15 32  1  0  0  0  0
 16 17  1  0  0  0  0
 16 33  1  0  0  0  0
 16 34  1  0  0  0  0
 17 18  1  0  0  0  0
 17 35  1  0  0  0  0
 17 36  1  0  0  0  0
 18 37  1  0  0  0  0
 18 38  1  0  0  0  0
 19 20  1  0  0  0  0
 20 21  1  0  0  0  0
 20 39  1  0  0  0  0
 20 40  1  0  0  0  0
M  END
>  <cansmi>
O=C(N1CCCCC1)/C=C/C=C/c1ccc2c(c1)OCO2

>  <HBA2>
4

>  <HBD>
0

>  <logP>
2.9351

>  <TPSA>
38.77

>  <MW>
285.338

$$$$
ZINC04098535
 OpenBabel02121623173D

 48 51  0  0  1  0  0  0  0  0999 V2000
   -4.0578    0.3160    8.6983 C   0  0  0  0  0  0  0  0  0  0  0  0
   -3.2998    1.0732    7.8020 C   0  0  0  0  0  0  0  0  0  0  0  0
   -3.0971    2.4445    8.0232 C   0  0  0  0  0  0  0  0  0  0  0  0
   -3.6595    3.0402    9.1456 C   0  0  0  0  0  0  0  0  0  0  0  0
   -4.4096    2.2864   10.0302 C   0  0  0  0  0  0  0  0  0  0  0  0
   -4.6098    0.9217    9.8075 C   0  0  0  0  0  0  0  0  0  0  0  0
   -5.3495    0.1906   10.6846 O   0  0  0  0  0  0  0  0  0  0  0  0
   -4.9555    2.8776   11.1241 O   0  0  0  0  0  0  0  0  0  0  0  0
   -2.3676    3.1868    7.1640 O   0  0  0  0  0  0  0  0  0  0  0  0
   -1.7886    2.6858    6.0537 C   0  0  0  0  0  0  0  0  0  0  0  0
   -1.0532    3.5186    5.2219 C   0  0  0  0  0  0  0  0  0  0  0  0
   -0.4499    3.0105    4.0820 C   0  0  0  0  0  0  0  0  0  0  0  0
   -0.5814    1.6671    3.7485 C   0  0  0  0  0  0  0  0  0  0  0  0
   -1.3099    0.8201    4.5629 C   0  0  0  0  0  0  0  0  0  0  0  0
   -1.9174    1.3265    5.7206 C   0  0  0  0  0  0  0  0  0  0  0  0
   -2.6990    0.4486    6.6074 C   0  0  0  0  0  0  0  0  0  0  0  0
   -2.8424   -0.7368    6.3667 O   0  0  0  0  0  0  0  0  0  0  0  0
   -1.4356   -0.4927    4.2442 O   0  0  0  0  0  0  0  0  0  0  0  0
    0.0756    1.1327    2.5019 C   0  0  1  0  0  0  0  0  0  0  0  0
    0.0992    0.0437    2.5418 H   0  0  0  0  0  0  0  0  0  0  0  0
   -0.7196    1.5817    1.2732 C   0  0  1  0  0  0  0  0  0  0  0  0
   -0.7782    2.6700    1.2549 H   0  0  0  0  0  0  0  0  0  0  0  0
   -0.0127    1.0858    0.0080 C   0  0  2  0  0  0  0  0  0  0  0  0
    0.0021   -0.0041    0.0020 H   0  0  0  0  0  0  0  0  0  0  0  0
    1.4237    1.6178   -0.0028 C   0  0  1  0  0  0  0  0  0  0  0  0
    1.4084    2.7068   -0.0480 H   0  0  0  0  0  0  0  0  0  0  0  0
    2.1361    1.1674    1.2752 C   0  0  2  0  0  0  0  0  0  0  0  0
    2.1867    0.0789    1.2988 H   0  0  0  0  0  0  0  0  0  0  0  0
    1.4103    1.6355    2.4137 O   0  0  0  0  0  0  0  0  0  0  0  0
    3.5526    1.7450    1.3003 C   0  0  0  0  0  0  0  0  0  0  0  0
    4.2564    1.2314    2.4330 O   0  0  0  0  0  0  0  0  0  0  0  0
    2.1153    1.1022   -1.1421 O   0  0  0  0  0  0  0  0  0  0  0  0
   -0.7072    1.5608   -1.1470 O   0  0  0  0  0  0  0  0  0  0  0  0
   -2.0375    1.0323    1.3303 O   0  0  0  0  0  0  0  0  0  0  0  0
    0.2716    3.8341    3.2801 O   0  0  0  0  0  0  0  0  0  0  0  0
   -4.2105   -0.7388    8.5237 H   0  0  0  0  0  0  0  0  0  0  0  0
   -3.5108    4.0943    9.3276 H   0  0  0  0  0  0  0  0  0  0  0  0
   -4.8335   -0.2036   11.4011 H   0  0  0  0  0  0  0  0  0  0  0  0
   -4.3838    2.8662   11.9039 H   0  0  0  0  0  0  0  0  0  0  0  0
   -0.9464    4.5651    5.4663 H   0  0  0  0  0  0  0  0  0  0  0  0
   -0.7423   -1.0556    4.6150 H   0  0  0  0  0  0  0  0  0  0  0  0
    4.0769    1.4615    0.3877 H   0  0  0  0  0  0  0  0  0  0  0  0
    3.5008    2.8317    1.3669 H   0  0  0  0  0  0  0  0  0  0  0  0
    5.1638    1.5560    2.5126 H   0  0  0  0  0  0  0  0  0  0  0  0
    1.7151    1.3451   -1.9883 H   0  0  0  0  0  0  0  0  0  0  0  0
   -0.3105    1.2861   -1.9851 H   0  0  0  0  0  0  0  0  0  0  0  0
   -2.5967    1.2725    0.5789 H   0  0  0  0  0  0  0  0  0  0  0  0
   -0.2477    4.2593    2.5839 H   0  0  0  0  0  0  0  0  0  0  0  0
  1  6  2  0  0  0  0
  1  2  1  0  0  0  0
  1 36  1  0  0  0  0
  2 16  1  0  0  0  0
  2  3  2  0  0  0  0
  3  4  1  0  0  0  0
  3  9  1  0  0  0  0
  4  5  2  0  0  0  0
  4 37  1  0  0  0  0
  5  6  1  0  0  0  0
  5  8  1  0  0  0  0
  6  7  1  0  0  0  0
  7 38  1  0  0  0  0
  8 39  1  0  0  0  0
  9 10  1  0  0  0  0
 10 15  2  0  0  0  0
 10 11  1  0  0  0  0
 11 12  2  0  0  0  0
 11 40  1  0  0  0  0
 12 13  1  0  0  0  0
 12 35  1  0  0  0  0
 13 14  2  0  0  0  0
 13 19  1  0  0  0  0
 14 15  1  0  0  0  0
 14 18  1  0  0  0  0
 15 16  1  0  0  0  0
 16 17  2  0  0  0  0
 18 41  1  0  0  0  0
 19 20  1  1  0  0  0
 19 29  1  0  0  0  0
 19 21  1  0  0  0  0
 21 22  1  6  0  0  0
 21 23  1  0  0  0  0
 21 34  1  0  0  0  0
 23 24  1  6  0  0  0
 23 25  1  0  0  0  0
 23 33  1  0  0  0  0
 25 26  1  6  0  0  0
 25 27  1  0  0  0  0
 25 32  1  0  0  0  0
 27 28  1  1  0  0  0
 27 29  1  0  0  0  0
 27 30  1  0  0  0  0
 30 31  1  0  0  0  0
 30 42  1  0  0  0  0
 30 43  1  0  0  0  0
 31 44  1  0  0  0  0
 32 45  1  0  0  0  0
 33 46  1  0  0  0  0
 34 47  1  0  0  0  0
 35 48  1  0  0  0  0
M  END
>  <cansmi>
OC[C@H]1O[C@H]([C@@H]([C@H]([C@@H]1O)O)O)c1c(O)cc2c(c1O)c(=O)c1c(o2)cc(c(c1)O)O

>  <HBA2>
11

>  <HBD>
8

>  <logP>
-0.7165

>  <TPSA>
201.28

>  <MW>
422.34

$$$$
ZINC05752284
 OpenBabel02121623173D

 68 72  0  0  1  0  0  0  0  0999 V2000
    4.0117    1.2039   -2.6441 C   0  0  0  0  0  0  0  0  0  0  0  0
    3.2103    1.7819   -1.4760 C   0  0  1  0  0  0  0  0  0  0  0  0
    3.2205    2.8716   -1.5022 H   0  0  0  0  0  0  0  0  0  0  0  0
    1.7944    1.2573   -1.4837 C   0  0  2  0  0  0  0  0  0  0  0  0
    1.7965    0.1736   -1.6009 H   0  0  0  0  0  0  0  0  0  0  0  0
    0.6521    1.8599   -2.2572 C   0  0  0  0  0  0  0  0  0  0  0  0
   -0.5872    1.6446   -1.3305 C   0  0  0  0  0  0  0  0  0  0  0  0
   -0.0127    1.0858    0.0080 C   0  0  1  0  0  0  0  0  0  0  0  0
    0.0021   -0.0041    0.0020 H   0  0  0  0  0  0  0  0  0  0  0  0
    1.3888    1.6446   -0.0024 C   0  0  2  0  0  0  0  0  0  0  0  0
    1.3807    3.1740    0.0566 C   0  0  0  0  0  0  0  0  0  0  0  0
    0.6029    3.6655    1.2714 C   0  0  0  0  0  0  0  0  0  0  0  0
    0.0520    2.4862    2.0747 C   0  0  2  0  0  0  0  0  0  0  0  0
    0.8861    1.8833    2.4337 H   0  0  0  0  0  0  0  0  0  0  0  0
   -0.8275    1.6113    1.1853 C   0  0  2  0  0  0  0  0  0  0  0  0
   -1.6671    2.2005    0.8165 H   0  0  0  0  0  0  0  0  0  0  0  0
   -1.3344    0.4207    2.0098 C   0  0  0  0  0  0  0  0  0  0  0  0
   -2.0986    0.9472    3.1919 C   0  0  0  0  0  0  0  0  0  0  0  0
   -1.8147    2.0911    3.7431 C   0  0  0  0  0  0  0  0  0  0  0  0
   -0.7130    3.0068    3.2762 C   0  0  2  0  0  0  0  0  0  0  0  0
   -1.2529    4.4130    3.0040 C   0  0  0  0  0  0  0  0  0  0  0  0
   -1.9844    4.9206    4.2489 C   0  0  0  0  0  0  0  0  0  0  0  0
   -3.1837    4.0211    4.5503 C   0  0  1  0  0  0  0  0  0  0  0  0
   -3.8385    3.9854    3.6796 H   0  0  0  0  0  0  0  0  0  0  0  0
   -2.6697    2.5638    4.9077 C   0  0  0  0  0  0  0  0  0  0  0  0
   -5.1508    3.7912    5.9433 C   0  0  0  0  0  0  0  0  0  0  0  0
   -3.0794    4.6037    6.8982 C   0  0  0  0  0  0  0  0  0  0  0  0
    0.2741    3.1296    4.4387 C   0  0  0  0  0  0  0  0  0  0  0  0
    2.5613    1.0696    0.7441 C   0  0  0  0  0  0  0  0  0  0  0  0
    4.6983    2.2090    0.4197 C   0  0  0  0  0  0  0  0  0  0  0  0
    3.5381    1.4861   -3.5845 H   0  0  0  0  0  0  0  0  0  0  0  0
    5.0281    1.5966   -2.6170 H   0  0  0  0  0  0  0  0  0  0  0  0
    4.0397    0.1173   -2.5631 H   0  0  0  0  0  0  0  0  0  0  0  0
    0.8248    2.9226   -2.4274 H   0  0  0  0  0  0  0  0  0  0  0  0
    0.5162    1.3395   -3.2052 H   0  0  0  0  0  0  0  0  0  0  0  0
   -1.2729    0.9243   -1.7767 H   0  0  0  0  0  0  0  0  0  0  0  0
   -1.0957    2.5928   -1.1563 H   0  0  0  0  0  0  0  0  0  0  0  0
    2.4071    3.5359    0.1177 H   0  0  0  0  0  0  0  0  0  0  0  0
    0.9159    3.5653   -0.8483 H   0  0  0  0  0  0  0  0  0  0  0  0
    1.2641    4.2549    1.9066 H   0  0  0  0  0  0  0  0  0  0  0  0
   -0.2258    4.2903    0.9383 H   0  0  0  0  0  0  0  0  0  0  0  0
   -1.9899   -0.1970    1.3959 H   0  0  0  0  0  0  0  0  0  0  0  0
   -0.4876   -0.1736    2.3533 H   0  0  0  0  0  0  0  0  0  0  0  0
   -2.9082    0.3579    3.5965 H   0  0  0  0  0  0  0  0  0  0  0  0
   -0.4249    5.0820    2.7699 H   0  0  0  0  0  0  0  0  0  0  0  0
   -1.9452    4.3807    2.1627 H   0  0  0  0  0  0  0  0  0  0  0  0
   -1.3020    4.9112    5.0989 H   0  0  0  0  0  0  0  0  0  0  0  0
   -2.3305    5.9395    4.0752 H   0  0  0  0  0  0  0  0  0  0  0  0
   -3.5177    1.8916    5.0384 H   0  0  0  0  0  0  0  0  0  0  0  0
   -2.0717    2.5843    5.8188 H   0  0  0  0  0  0  0  0  0  0  0  0
   -4.8916    2.7534    6.1527 H   0  0  0  0  0  0  0  0  0  0  0  0
   -5.6801    4.2130    6.7977 H   0  0  0  0  0  0  0  0  0  0  0  0
   -5.7905    3.8351    5.0618 H   0  0  0  0  0  0  0  0  0  0  0  0
   -2.2132    5.2382    6.7109 H   0  0  0  0  0  0  0  0  0  0  0  0
   -3.6526    5.0082    7.7323 H   0  0  0  0  0  0  0  0  0  0  0  0
   -2.7451    3.5953    7.1422 H   0  0  0  0  0  0  0  0  0  0  0  0
    1.0706    3.8224    4.1674 H   0  0  0  0  0  0  0  0  0  0  0  0
   -0.2473    3.5027    5.3202 H   0  0  0  0  0  0  0  0  0  0  0  0
    0.7021    2.1512    4.6568 H   0  0  0  0  0  0  0  0  0  0  0  0
    2.7134    1.6048    1.6814 H   0  0  0  0  0  0  0  0  0  0  0  0
    2.4060    0.0076    0.9338 H   0  0  0  0  0  0  0  0  0  0  0  0
    4.2140    3.1709    0.5880 H   0  0  0  0  0  0  0  0  0  0  0  0
    5.0604    1.8136    1.3687 H   0  0  0  0  0  0  0  0  0  0  0  0
    5.5375    2.3393   -0.2635 H   0  0  0  0  0  0  0  0  0  0  0  0
   -3.9324    4.5891    5.6912 N   0  3  0  0  0  0  0  0  0  0  0  0
   -4.2057    5.5525    5.4643 H   0  0  0  0  0  0  0  0  0  0  0  0
    3.7118    1.2513   -0.1714 N   0  3  2  0  0  0  0  0  0  0  0  0
    4.1711    0.3459   -0.3245 H   0  0  0  0  0  0  0  0  0  0  0  0
  1  2  1  0  0  0  0
  1 31  1  0  0  0  0
  1 32  1  0  0  0  0
  1 33  1  0  0  0  0
  2  3  1  6  0  0  0
  2  4  1  0  0  0  0
  2 67  1  0  0  0  0
  4  5  1  6  0  0  0
  4 10  1  0  0  0  0
  4  6  1  0  0  0  0
  6  7  1  0  0  0  0
  6 34  1  0  0  0  0
  6 35  1  0  0  0  0
  7  8  1  0  0  0  0
  7 36  1  0  0  0  0
  7 37  1  0  0  0  0
  8  9  1  6  0  0  0
  8 15  1  0  0  0  0
  8 10  1  0  0  0  0
 10 11  1  1  0  0  0
 10 29  1  0  0  0  0
 11 12  1  0  0  0  0
 11 38  1  0  0  0  0
 11 39  1  0  0  0  0
 12 13  1  0  0  0  0
 12 40  1  0  0  0  0
 12 41  1  0  0  0  0
 13 14  1  1  0  0  0
 13 20  1  0  0  0  0
 13 15  1  0  0  0  0
 15 16  1  6  0  0  0
 15 17  1  0  0  0  0
 17 18  1  0  0  0  0
 17 42  1  0  0  0  0
 17 43  1  0  0  0  0
 18 19  2  0  0  0  0
 18 44  1  0  0  0  0
 19 25  1  0  0  0  0
 19 20  1  0  0  0  0
 20 21  1  0  0  0  0
 20 28  1  1  0  0  0
 21 22  1  0  0  0  0
 21 45  1  0  0  0  0
 21 46  1  0  0  0  0
 22 23  1  0  0  0  0
 22 47  1  0  0  0  0
 22 48  1  0  0  0  0
 23 24  1  6  0  0  0
 23 25  1  0  0  0  0
 23 65  1  0  0  0  0
 25 49  1  0  0  0  0
 25 50  1  0  0  0  0
 26 51  1  0  0  0  0
 26 52  1  0  0  0  0
 26 53  1  0  0  0  0
 26 65  1  0  0  0  0
 27 54  1  0  0  0  0
 27 55  1  0  0  0  0
 27 56  1  0  0  0  0
 27 65  1  0  0  0  0
 28 57  1  0  0  0  0
 28 58  1  0  0  0  0
 28 59  1  0  0  0  0
 29 60  1  0  0  0  0
 29 61  1  0  0  0  0
 29 67  1  0  0  0  0
 30 62  1  0  0  0  0
 30 63  1  0  0  0  0
 30 64  1  0  0  0  0
 30 67  1  0  0  0  0
 65 66  1  0  0  0  0
 67 68  1  6  0  0  0
M  CHG  2  65   1  67   1
M  END
>  <cansmi>
C[NH+]([C@H]1CC[C@]2(C(=CC[C@H]3[C@H]2CC[C@]24[C@@H]3CC[C@H]4[C@@H]([N@H+](C2)C)C)C1)C)C

>  <HBA2>
0

>  <HBD>
2

>  <logP>
3.5446

>  <TPSA>
8.88

>  <MW>
358.604

$$$$
ZINC03978827
 OpenBabel02121623173D

 80 84  0  0  1  0  0  0  0  0999 V2000
   -2.2499    1.7395    1.5965 C   0  0  0  0  0  0  0  0  0  0  0  0
   -2.3630    0.2147    1.6179 C   0  0  2  0  0  0  0  0  0  0  0  0
   -2.1511   -0.1868    0.6297 H   0  0  0  0  0  0  0  0  0  0  0  0
   -3.7754   -0.1882    2.0495 C   0  0  0  0  0  0  0  0  0  0  0  0
   -3.8831   -1.7109    2.0243 C   0  0  0  0  0  0  0  0  0  0  0  0
   -2.8712   -2.3453    2.9771 C   0  0  2  0  0  0  0  0  0  0  0  0
   -3.2034   -1.9924    4.4220 C   0  0  0  0  0  0  0  0  0  0  0  0
   -2.2907   -2.7490    5.3888 C   0  0  0  0  0  0  0  0  0  0  0  0
   -0.8207   -2.4481    5.1311 C   0  0  2  0  0  0  0  0  0  0  0  0
   -0.4927   -2.4623    3.6663 C   0  0  0  0  0  0  0  0  0  0  0  0
    0.6115   -2.9748    3.1888 C   0  0  0  0  0  0  0  0  0  0  0  0
    1.6871   -3.6146    4.0173 C   0  0  0  0  0  0  0  0  0  0  0  0
    1.5217   -3.2085    5.4824 C   0  0  1  0  0  0  0  0  0  0  0  0
    1.7443   -2.1224    5.5395 H   0  0  0  0  0  0  0  0  0  0  0  0
    0.0772   -3.4243    5.9096 C   0  0  1  0  0  0  0  0  0  0  0  0
   -0.1263   -3.2338    7.4071 C   0  0  0  0  0  0  0  0  0  0  0  0
    0.9033   -4.0493    8.2060 C   0  0  0  0  0  0  0  0  0  0  0  0
    2.2898   -3.5411    7.8160 C   0  0  2  0  0  0  0  0  0  0  0  0
    2.2178   -2.4232    7.8479 H   0  0  0  0  0  0  0  0  0  0  0  0
    2.5695   -3.8926    6.3613 C   0  0  2  0  0  0  0  0  0  0  0  0
    3.9485   -3.3245    5.9787 C   0  0  0  0  0  0  0  0  0  0  0  0
    5.0165   -3.9216    6.8907 C   0  0  0  0  0  0  0  0  0  0  0  0
    4.7602   -3.5214    8.3374 C   0  0  1  0  0  0  0  0  0  0  0  0
    4.8674   -2.4352    8.4331 H   0  0  0  0  0  0  0  0  0  0  0  0
    3.3625   -3.9218    8.8099 C   0  0  0  0  0  0  0  0  0  0  0  0
    3.3394   -5.4064    9.1716 C   0  0  0  0  0  0  0  0  0  0  0  0
    3.1067   -3.1345   10.1199 C   0  0  0  0  0  0  0  0  0  0  0  0
    5.7353   -4.1464    9.1809 O   0  0  0  0  0  0  0  0  0  0  0  0
    2.6012   -5.3981    6.1216 C   0  0  0  0  0  0  0  0  0  0  0  0
   -0.3721   -4.8467    5.5369 C   0  0  0  0  0  0  0  0  0  0  0  0
   -1.4543   -1.8772    2.6495 C   0  0  2  0  0  0  0  0  0  0  0  0
   -1.1832   -2.2584    1.6510 H   0  0  0  0  0  0  0  0  0  0  0  0
   -1.3629   -0.3562    2.6314 C   0  0  1  0  0  0  0  0  0  0  0  0
   -1.6059    0.0562    3.6092 H   0  0  0  0  0  0  0  0  0  0  0  0
    0.0468    0.0829    2.2258 C   0  0  0  0  0  0  0  0  0  0  0  0
   -0.5399   -1.0348    5.6568 C   0  0  0  0  0  0  0  0  0  0  0  0
   -2.9445   -3.8442    2.7896 C   0  0  0  0  0  0  0  0  0  0  0  0
   -3.7239   -4.3202    1.9818 O   0  0  0  0  0  0  0  0  0  0  0  0
   -2.2243   -4.5767    3.4463 O   0  5  0  0  0  0  0  0  0  0  0  0
   -1.2399    2.0248    1.3019 H   0  0  0  0  0  0  0  0  0  0  0  0
   -2.9654    2.1470    0.8823 H   0  0  0  0  0  0  0  0  0  0  0  0
   -2.4636    2.1337    2.5900 H   0  0  0  0  0  0  0  0  0  0  0  0
   -3.9698    0.1803    3.0558 H   0  0  0  0  0  0  0  0  0  0  0  0
   -4.5022    0.2419    1.3592 H   0  0  0  0  0  0  0  0  0  0  0  0
   -4.8906   -2.0096    2.3196 H   0  0  0  0  0  0  0  0  0  0  0  0
   -3.6916   -2.0691    1.0098 H   0  0  0  0  0  0  0  0  0  0  0  0
   -3.1028   -0.9193    4.5760 H   0  0  0  0  0  0  0  0  0  0  0  0
   -4.2426   -2.2738    4.6258 H   0  0  0  0  0  0  0  0  0  0  0  0
   -2.5347   -2.4030    6.4107 H   0  0  0  0  0  0  0  0  0  0  0  0
   -2.5341   -3.8025    5.3536 H   0  0  0  0  0  0  0  0  0  0  0  0
    0.7546   -2.9368    2.1160 H   0  0  0  0  0  0  0  0  0  0  0  0
    1.6485   -4.6899    3.8782 H   0  0  0  0  0  0  0  0  0  0  0  0
    2.6596   -3.2560    3.6562 H   0  0  0  0  0  0  0  0  0  0  0  0
   -0.0128   -2.1972    7.7151 H   0  0  0  0  0  0  0  0  0  0  0  0
   -1.1267   -3.5776    7.6859 H   0  0  0  0  0  0  0  0  0  0  0  0
    0.7201   -3.8720    9.2680 H   0  0  0  0  0  0  0  0  0  0  0  0
    0.7855   -5.1037    8.0015 H   0  0  0  0  0  0  0  0  0  0  0  0
    4.1631   -3.5839    4.9433 H   0  0  0  0  0  0  0  0  0  0  0  0
    3.9302   -2.2417    6.0898 H   0  0  0  0  0  0  0  0  0  0  0  0
    5.0618   -5.0017    6.7929 H   0  0  0  0  0  0  0  0  0  0  0  0
    5.9952   -3.5229    6.5845 H   0  0  0  0  0  0  0  0  0  0  0  0
    3.6150   -5.9975    8.2982 H   0  0  0  0  0  0  0  0  0  0  0  0
    4.0494   -5.5953    9.9768 H   0  0  0  0  0  0  0  0  0  0  0  0
    2.3375   -5.6854    9.4977 H   0  0  0  0  0  0  0  0  0  0  0  0
    2.1229   -3.3919   10.5123 H   0  0  0  0  0  0  0  0  0  0  0  0
    3.8698   -3.3932   10.8541 H   0  0  0  0  0  0  0  0  0  0  0  0
    3.1476   -2.0648    9.9148 H   0  0  0  0  0  0  0  0  0  0  0  0
    6.6482   -3.9040    8.9733 H   0  0  0  0  0  0  0  0  0  0  0  0
    2.6560   -5.5945    5.0508 H   0  0  0  0  0  0  0  0  0  0  0  0
    3.4740   -5.8262    6.6146 H   0  0  0  0  0  0  0  0  0  0  0  0
    1.6963   -5.8499    6.5280 H   0  0  0  0  0  0  0  0  0  0  0  0
   -0.1640   -5.0289    4.4826 H   0  0  0  0  0  0  0  0  0  0  0  0
    0.1712   -5.5703    6.1448 H   0  0  0  0  0  0  0  0  0  0  0  0
   -1.4418   -4.9494    5.7192 H   0  0  0  0  0  0  0  0  0  0  0  0
    0.1016    1.1715    2.2228 H   0  0  0  0  0  0  0  0  0  0  0  0
    0.7702   -0.3153    2.9372 H   0  0  0  0  0  0  0  0  0  0  0  0
    0.2722   -0.2949    1.2285 H   0  0  0  0  0  0  0  0  0  0  0  0
   -0.6486   -1.0223    6.7413 H   0  0  0  0  0  0  0  0  0  0  0  0
    0.4759   -0.7431    5.3901 H   0  0  0  0  0  0  0  0  0  0  0  0
   -1.2475   -0.3347    5.2127 H   0  0  0  0  0  0  0  0  0  0  0  0
  1  2  1  0  0  0  0
  1 40  1  0  0  0  0
  1 41  1  0  0  0  0
  1 42  1  0  0  0  0
  2  3  1  6  0  0  0
  2 33  1  0  0  0  0
  2  4  1  0  0  0  0
  4  5  1  0  0  0  0
  4 43  1  0  0  0  0
  4 44  1  0  0  0  0
  5  6  1  0  0  0  0
  5 45  1  0  0  0  0
  5 46  1  0  0  0  0
  6 31  1  0  0  0  0
  6  7  1  0  0  0  0
  6 37  1  6  0  0  0
  7  8  1  0  0  0  0
  7 47  1  0  0  0  0
  7 48  1  0  0  0  0
  8  9  1  0  0  0  0
  8 49  1  0  0  0  0
  8 50  1  0  0  0  0
  9 15  1  0  0  0  0
  9 10  1  0  0  0  0
  9 36  1  1  0  0  0
 10 11  2  0  0  0  0
 10 31  1  0  0  0  0
 11 12  1  0  0  0  0
 11 51  1  0  0  0  0
 12 13  1  0  0  0  0
 12 52  1  0  0  0  0
 12 53  1  0  0  0  0
 13 14  1  1  0  0  0
 13 20  1  0  0  0  0
 13 15  1  0  0  0  0
 15 16  1  0  0  0  0
 15 30  1  6  0  0  0
 16 17  1  0  0  0  0
 16 54  1  0  0  0  0
 16 55  1  0  0  0  0
 17 18  1  0  0  0  0
 17 56  1  0  0  0  0
 17 57  1  0  0  0  0
 18 19  1  1  0  0  0
 18 25  1  0  0  0  0
 18 20  1  0  0  0  0
 20 21  1  0  0  0  0
 20 29  1  6  0  0  0
 21 22  1  0  0  0  0
 21 58  1  0  0  0  0
 21 59  1  0  0  0  0
 22 23  1  0  0  0  0
 22 60  1  0  0  0  0
 22 61  1  0  0  0  0
 23 24  1  1  0  0  0
 23 25  1  0  0  0  0
 23 28  1  0  0  0  0
 25 26  1  0  0  0  0
 25 27  1  0  0  0  0
 26 62  1  0  0  0  0
 26 63  1  0  0  0  0
 26 64  1  0  0  0  0
 27 65  1  0  0  0  0
 27 66  1  0  0  0  0
 27 67  1  0  0  0  0
 28 68  1  0  0  0  0
 29 69  1  0  0  0  0
 29 70  1  0  0  0  0
 29 71  1  0  0  0  0
 30 72  1  0  0  0  0
 30 73  1  0  0  0  0
 30 74  1  0  0  0  0
 31 32  1  6  0  0  0
 31 33  1  0  0  0  0
 33 34  1  1  0  0  0
 33 35  1  0  0  0  0
 35 75  1  0  0  0  0
 35 76  1  0  0  0  0
 35 77  1  0  0  0  0
 36 78  1  0  0  0  0
 36 79  1  0  0  0  0
 36 80  1  0  0  0  0
 37 38  2  0  0  0  0
 37 39  1  0  0  0  0
M  CHG  1  39  -1
M  END
>  <cansmi>
C[C@@H]1CC[C@]2([C@@H]([C@H]1C)C1=CC[C@H]3[C@@]([C@@]1(CC2)C)(C)CC[C@@H]1[C@]3(C)CC[C@@H](C1(C)C)O)C(=O)[O-]

>  <HBA2>
3

>  <HBD>
1

>  <logP>
5.7548

>  <TPSA>
60.36

>  <MW>
455.692

$$$$
ZINC03978829
 OpenBabel02121623173D

 80 84  0  0  1  0  0  0  0  0999 V2000
   -0.5734    1.3721    0.6339 C   0  0  0  0  0  0  0  0  0  0  0  0
   -0.5830   -0.1754    0.6441 C   0  0  2  0  0  0  0  0  0  0  0  0
   -0.1159   -0.5226   -0.3159 H   0  0  0  0  0  0  0  0  0  0  0  0
   -1.9610   -0.7037    0.7911 C   0  0  0  0  0  0  0  0  0  0  0  0
   -1.8722   -2.2347    0.7344 C   0  0  0  0  0  0  0  0  0  0  0  0
   -0.9996   -2.7961    1.7726 C   0  0  2  0  0  0  0  0  0  0  0  0
   -1.6433   -2.6292    3.2154 C   0  0  0  0  0  0  0  0  0  0  0  0
   -0.8580   -3.3032    4.2614 C   0  0  0  0  0  0  0  0  0  0  0  0
    0.5786   -2.8170    4.3625 C   0  0  2  0  0  0  0  0  0  0  0  0
    1.1908   -2.7370    2.9381 C   0  0  0  0  0  0  0  0  0  0  0  0
    2.3990   -3.1470    2.6193 C   0  0  0  0  0  0  0  0  0  0  0  0
    3.4160   -3.7016    3.6337 C   0  0  0  0  0  0  0  0  0  0  0  0
    2.9696   -3.2840    5.0547 C   0  0  1  0  0  0  0  0  0  0  0  0
    2.9427   -2.2096    5.1143 H   0  0  0  0  0  0  0  0  0  0  0  0
    1.4308   -3.6672    5.1899 C   0  0  1  0  0  0  0  0  0  0  0  0
    0.9830   -3.4927    6.7166 C   0  0  0  0  0  0  0  0  0  0  0  0
    1.9299   -4.1269    7.6737 C   0  0  0  0  0  0  0  0  0  0  0  0
    3.3998   -3.6255    7.5597 C   0  0  1  0  0  0  0  0  0  0  0  0
    3.9976   -4.3799    8.1766 H   0  0  0  0  0  0  0  0  0  0  0  0
    3.8130   -3.8467    6.1237 C   0  0  2  0  0  0  0  0  0  0  0  0
    5.3041   -3.2767    5.8910 C   0  0  0  0  0  0  0  0  0  0  0  0
    5.2910   -1.8421    6.3213 C   0  0  0  0  0  0  0  0  0  0  0  0
    5.0508   -1.6942    7.8188 C   0  0  1  0  0  0  0  0  0  0  0  0
    5.0786   -0.6376    8.0889 H   0  0  0  0  0  0  0  0  0  0  0  0
    3.6410   -2.2253    8.1740 C   0  0  0  0  0  0  0  0  0  0  0  0
    2.5539   -1.1652    7.7749 C   0  0  0  0  0  0  0  0  0  0  0  0
    3.5709   -2.4006    9.6760 C   0  0  0  0  0  0  0  0  0  0  0  0
    6.0166   -2.5046    8.4852 O   0  0  0  0  0  0  0  0  0  0  0  0
    4.0530   -5.3901    5.9395 C   0  0  0  0  0  0  0  0  0  0  0  0
    1.2357   -5.1830    4.8688 C   0  0  0  0  0  0  0  0  0  0  0  0
    0.3237   -2.1966    1.7450 C   0  0  2  0  0  0  0  0  0  0  0  0
    0.8875   -2.5453    0.8841 H   0  0  0  0  0  0  0  0  0  0  0  0
    0.3235   -0.6431    1.7984 C   0  0  1  0  0  0  0  0  0  0  0  0
   -0.1475   -0.2964    2.7402 H   0  0  0  0  0  0  0  0  0  0  0  0
    1.7371   -0.1278    1.6927 C   0  0  0  0  0  0  0  0  0  0  0  0
    0.5603   -1.3685    4.8778 C   0  0  0  0  0  0  0  0  0  0  0  0
   -0.9077   -4.3113    1.5241 C   0  0  0  0  0  0  0  0  0  0  0  0
   -1.5092   -4.8134    0.5899 O   0  0  0  0  0  0  0  0  0  0  0  0
   -0.2334   -5.0102    2.2612 O   0  5  0  0  0  0  0  0  0  0  0  0
    0.4540    1.7286    0.5598 H   0  0  0  0  0  0  0  0  0  0  0  0
   -1.1458    1.7334   -0.2204 H   0  0  0  0  0  0  0  0  0  0  0  0
   -1.0216    1.7443    1.5551 H   0  0  0  0  0  0  0  0  0  0  0  0
   -2.3140   -0.4124    1.7403 H   0  0  0  0  0  0  0  0  0  0  0  0
   -2.6132   -0.3664   -0.0116 H   0  0  0  0  0  0  0  0  0  0  0  0
   -2.9479   -2.6673    0.7516 H   0  0  0  0  0  0  0  0  0  0  0  0
   -1.4866   -2.5374   -0.2860 H   0  0  0  0  0  0  0  0  0  0  0  0
   -1.7420   -1.5434    3.3504 H   0  0  0  0  0  0  0  0  0  0  0  0
   -2.6976   -3.0280    3.1777 H   0  0  0  0  0  0  0  0  0  0  0  0
   -1.3560   -3.0903    5.2083 H   0  0  0  0  0  0  0  0  0  0  0  0
   -0.9255   -4.3578    4.1014 H   0  0  0  0  0  0  0  0  0  0  0  0
    2.6886   -3.0468    1.6182 H   0  0  0  0  0  0  0  0  0  0  0  0
    3.4279   -4.7063    3.5045 H   0  0  0  0  0  0  0  0  0  0  0  0
    4.3871   -3.2474    3.4362 H   0  0  0  0  0  0  0  0  0  0  0  0
    0.6373   -2.5700    6.9676 H   0  0  0  0  0  0  0  0  0  0  0  0
    0.0447   -4.1446    6.7705 H   0  0  0  0  0  0  0  0  0  0  0  0
    1.5478   -3.8289    8.7203 H   0  0  0  0  0  0  0  0  0  0  0  0
    1.9173   -5.1986    7.5733 H   0  0  0  0  0  0  0  0  0  0  0  0
    6.0077   -3.7814    6.4572 H   0  0  0  0  0  0  0  0  0  0  0  0
    5.4879   -3.3419    4.8560 H   0  0  0  0  0  0  0  0  0  0  0  0
    6.2583   -1.3784    6.0987 H   0  0  0  0  0  0  0  0  0  0  0  0
    4.4609   -1.2054    5.7773 H   0  0  0  0  0  0  0  0  0  0  0  0
    1.5747   -1.5037    8.1135 H   0  0  0  0  0  0  0  0  0  0  0  0
    2.7897   -0.2093    8.2427 H   0  0  0  0  0  0  0  0  0  0  0  0
    2.5427   -1.0465    6.6915 H   0  0  0  0  0  0  0  0  0  0  0  0
    4.3388   -3.1050    9.9958 H   0  0  0  0  0  0  0  0  0  0  0  0
    3.7349   -1.4389   10.1621 H   0  0  0  0  0  0  0  0  0  0  0  0
    2.5886   -2.7842    9.9517 H   0  0  0  0  0  0  0  0  0  0  0  0
    6.9329   -2.2590    8.2978 H   0  0  0  0  0  0  0  0  0  0  0  0
    4.3192   -5.5953    4.9027 H   0  0  0  0  0  0  0  0  0  0  0  0
    4.8634   -5.7124    6.5933 H   0  0  0  0  0  0  0  0  0  0  0  0
    3.1426   -5.9324    6.1950 H   0  0  0  0  0  0  0  0  0  0  0  0
    1.6485   -5.4018    3.8839 H   0  0  0  0  0  0  0  0  0  0  0  0
    1.7501   -5.7827    5.6197 H   0  0  0  0  0  0  0  0  0  0  0  0
    0.1724   -5.4226    4.8785 H   0  0  0  0  0  0  0  0  0  0  0  0
    1.7282    0.9621    1.7030 H   0  0  0  0  0  0  0  0  0  0  0  0
    2.3215   -0.4944    2.5365 H   0  0  0  0  0  0  0  0  0  0  0  0
    2.1831   -0.4787    0.7620 H   0  0  0  0  0  0  0  0  0  0  0  0
    0.2155   -1.3550    5.9118 H   0  0  0  0  0  0  0  0  0  0  0  0
    1.5658   -0.9512    4.8246 H   0  0  0  0  0  0  0  0  0  0  0  0
   -0.1135   -0.7724    4.2623 H   0  0  0  0  0  0  0  0  0  0  0  0
  1  2  1  0  0  0  0
  1 40  1  0  0  0  0
  1 41  1  0  0  0  0
  1 42  1  0  0  0  0
  2  3  1  6  0  0  0
  2 33  1  0  0  0  0
  2  4  1  0  0  0  0
  4  5  1  0  0  0  0
  4 43  1  0  0  0  0
  4 44  1  0  0  0  0
  5  6  1  0  0  0  0
  5 45  1  0  0  0  0
  5 46  1  0  0  0  0
  6 31  1  0  0  0  0
  6  7  1  0  0  0  0
  6 37  1  6  0  0  0
  7  8  1  0  0  0  0
  7 47  1  0  0  0  0
  7 48  1  0  0  0  0
  8  9  1  0  0  0  0
  8 49  1  0  0  0  0
  8 50  1  0  0  0  0
  9 15  1  0  0  0  0
  9 10  1  0  0  0  0
  9 36  1  1  0  0  0
 10 11  2  0  0  0  0
 10 31  1  0  0  0  0
 11 12  1  0  0  0  0
 11 51  1  0  0  0  0
 12 13  1  0  0  0  0
 12 52  1  0  0  0  0
 12 53  1  0  0  0  0
 13 14  1  1  0  0  0
 13 20  1  0  0  0  0
 13 15  1  0  0  0  0
 15 16  1  0  0  0  0
 15 30  1  6  0  0  0
 16 17  1  0  0  0  0
 16 54  1  0  0  0  0
 16 55  1  0  0  0  0
 17 18  1  0  0  0  0
 17 56  1  0  0  0  0
 17 57  1  0  0  0  0
 18 19  1  1  0  0  0
 18 25  1  0  0  0  0
 18 20  1  0  0  0  0
 20 21  1  0  0  0  0
 20 29  1  6  0  0  0
 21 22  1  0  0  0  0
 21 58  1  0  0  0  0
 21 59  1  0  0  0  0
 22 23  1  0  0  0  0
 22 60  1  0  0  0  0
 22 61  1  0  0  0  0
 23 24  1  1  0  0  0
 23 25  1  0  0  0  0
 23 28  1  0  0  0  0
 25 26  1  0  0  0  0
 25 27  1  0  0  0  0
 26 62  1  0  0  0  0
 26 63  1  0  0  0  0
 26 64  1  0  0  0  0
 27 65  1  0  0  0  0
 27 66  1  0  0  0  0
 27 67  1  0  0  0  0
 28 68  1  0  0  0  0
 29 69  1  0  0  0  0
 29 70  1  0  0  0  0
 29 71  1  0  0  0  0
 30 72  1  0  0  0  0
 30 73  1  0  0  0  0
 30 74  1  0  0  0  0
 31 32  1  6  0  0  0
 31 33  1  0  0  0  0
 33 34  1  1  0  0  0
 33 35  1  0  0  0  0
 35 75  1  0  0  0  0
 35 76  1  0  0  0  0
 35 77  1  0  0  0  0
 36 78  1  0  0  0  0
 36 79  1  0  0  0  0
 36 80  1  0  0  0  0
 37 38  2  0  0  0  0
 37 39  1  0  0  0  0
M  CHG  1  39  -1
M  END
>  <cansmi>
C[C@@H]1CC[C@]2([C@@H]([C@H]1C)C1=CC[C@H]3[C@@]([C@@]1(CC2)C)(C)CC[C@H]1[C@]3(C)CC[C@@H](C1(C)C)O)C(=O)[O-]

>  <HBA2>
3

>  <HBD>
1

>  <logP>
5.7548

>  <TPSA>
60.36

>  <MW>
455.692

$$$$
ZINC05430812
 OpenBabel02121623173D

 56 58  0  0  0  0  0  0  0  0999 V2000
   -0.1716    1.4909    0.0169 C   0  0  0  0  0  0  0  0  0  0  0  0
   -0.0710   -0.0127    0.0071 C   0  0  0  0  0  0  0  0  0  0  0  0
    0.1206   -0.6637    1.1276 C   0  0  0  0  0  0  0  0  0  0  0  0
    0.1232    0.0784    2.4392 C   0  0  0  0  0  0  0  0  0  0  0  0
   -0.8640   -0.5621    3.3807 C   0  0  0  0  0  0  0  0  0  0  0  0
   -2.1862   -0.1320    3.3999 C   0  0  0  0  0  0  0  0  0  0  0  0
   -3.1061   -0.7076    4.2624 C   0  0  0  0  0  0  0  0  0  0  0  0
   -2.7173   -1.7274    5.1200 C   0  0  0  0  0  0  0  0  0  0  0  0
   -1.3828   -2.1686    5.0932 C   0  0  0  0  0  0  0  0  0  0  0  0
   -0.4565   -1.5815    4.2215 C   0  0  0  0  0  0  0  0  0  0  0  0
    0.8319   -2.0064    4.2059 O   0  0  0  0  0  0  0  0  0  0  0  0
   -0.9877   -3.2676    5.9925 C   0  0  0  0  0  0  0  0  0  0  0  0
    0.1800   -3.5529    6.1898 O   0  0  0  0  0  0  0  0  0  0  0  0
   -2.0942   -4.0017    6.6403 C   0  0  0  0  0  0  0  0  0  0  0  0
   -3.3860   -3.4536    6.5807 C   0  0  0  0  0  0  0  0  0  0  0  0
   -3.6148   -2.2762    5.9633 O   0  0  0  0  0  0  0  0  0  0  0  0
   -4.4378   -4.1396    7.1752 C   0  0  0  0  0  0  0  0  0  0  0  0
   -4.2074   -5.3413    7.8210 C   0  0  0  0  0  0  0  0  0  0  0  0
   -2.9198   -5.8789    7.8846 C   0  0  0  0  0  0  0  0  0  0  0  0
   -1.8650   -5.2121    7.2956 C   0  0  0  0  0  0  0  0  0  0  0  0
   -0.4738   -5.7879    7.3594 C   0  0  0  0  0  0  0  0  0  0  0  0
    0.2246   -5.2785    8.5939 C   0  0  0  0  0  0  0  0  0  0  0  0
    0.7360   -6.1246    9.4533 C   0  0  0  0  0  0  0  0  0  0  0  0
    0.6260   -7.6074    9.2075 C   0  0  0  0  0  0  0  0  0  0  0  0
    1.4344   -5.6152   10.6878 C   0  0  0  0  0  0  0  0  0  0  0  0
   -2.7058   -7.0591    8.5266 O   0  0  0  0  0  0  0  0  0  0  0  0
   -2.8128   -8.2511    7.7457 C   0  0  0  0  0  0  0  0  0  0  0  0
   -5.2424   -6.0039    8.3988 O   0  0  0  0  0  0  0  0  0  0  0  0
   -2.5804    0.8628    2.5651 O   0  0  0  0  0  0  0  0  0  0  0  0
   -0.1908   -0.7674   -1.2918 C   0  0  0  0  0  0  0  0  0  0  0  0
    0.7134    1.9111    0.4947 H   0  0  0  0  0  0  0  0  0  0  0  0
   -0.2400    1.8572   -1.0074 H   0  0  0  0  0  0  0  0  0  0  0  0
   -1.0610    1.7919    0.5705 H   0  0  0  0  0  0  0  0  0  0  0  0
    0.2767   -1.7323    1.1114 H   0  0  0  0  0  0  0  0  0  0  0  0
    1.1206    0.0392    2.8769 H   0  0  0  0  0  0  0  0  0  0  0  0
   -0.1585    1.1176    2.2692 H   0  0  0  0  0  0  0  0  0  0  0  0
   -4.1290   -0.3611    4.2673 H   0  0  0  0  0  0  0  0  0  0  0  0
    1.4088   -1.5356    4.8229 H   0  0  0  0  0  0  0  0  0  0  0  0
   -5.4378   -3.7339    7.1329 H   0  0  0  0  0  0  0  0  0  0  0  0
   -0.5322   -6.8756    7.3978 H   0  0  0  0  0  0  0  0  0  0  0  0
    0.0857   -5.4850    6.4744 H   0  0  0  0  0  0  0  0  0  0  0  0
    0.3034   -4.2159    8.7700 H   0  0  0  0  0  0  0  0  0  0  0  0
    1.1178   -7.8573    8.2674 H   0  0  0  0  0  0  0  0  0  0  0  0
    1.1061   -8.1475   10.0235 H   0  0  0  0  0  0  0  0  0  0  0  0
   -0.4254   -7.8898    9.1538 H   0  0  0  0  0  0  0  0  0  0  0  0
    0.7118   -5.5112   11.4972 H   0  0  0  0  0  0  0  0  0  0  0  0
    2.2113   -6.3205   10.9828 H   0  0  0  0  0  0  0  0  0  0  0  0
    1.8851   -4.6456   10.4762 H   0  0  0  0  0  0  0  0  0  0  0  0
   -3.8170   -8.3229    7.3280 H   0  0  0  0  0  0  0  0  0  0  0  0
   -2.0837   -8.2218    6.9360 H   0  0  0  0  0  0  0  0  0  0  0  0
   -2.6194   -9.1180    8.3776 H   0  0  0  0  0  0  0  0  0  0  0  0
   -5.6863   -6.6297    7.8103 H   0  0  0  0  0  0  0  0  0  0  0  0
   -2.8982    0.5527    1.7061 H   0  0  0  0  0  0  0  0  0  0  0  0
   -0.3461   -0.0626   -2.1086 H   0  0  0  0  0  0  0  0  0  0  0  0
    0.7239   -1.3331   -1.4690 H   0  0  0  0  0  0  0  0  0  0  0  0
   -1.0369   -1.4525   -1.2373 H   0  0  0  0  0  0  0  0  0  0  0  0
  1  2  1  0  0  0  0
  1 31  1  0  0  0  0
  1 32  1  0  0  0  0
  1 33  1  0  0  0  0
  2  3  2  0  0  0  0
  2 30  1  0  0  0  0
  3  4  1  0  0  0  0
  3 34  1  0  0  0  0
  4  5  1  0  0  0  0
  4 35  1  0  0  0  0
  4 36  1  0  0  0  0
  5 10  2  0  0  0  0
  5  6  1  0  0  0  0
  6  7  2  0  0  0  0
  6 29  1  0  0  0  0
  7  8  1  0  0  0  0
  7 37  1  0  0  0  0
  8 16  1  0  0  0  0
  8  9  2  0  0  0  0
  9 10  1  0  0  0  0
  9 12  1  0  0  0  0
 10 11  1  0  0  0  0
 11 38  1  0  0  0  0
 12 13  2  0  0  0  0
 12 14  1  0  0  0  0
 14 20  2  0  0  0  0
 14 15  1  0  0  0  0
 15 16  1  0  0  0  0
 15 17  2  0  0  0  0
 17 18  1  0  0  0  0
 17 39  1  0  0  0  0
 18 19  2  0  0  0  0
 18 28  1  0  0  0  0
 19 20  1  0  0  0  0
 19 26  1  0  0  0  0
 20 21  1  0  0  0  0
 21 22  1  0  0  0  0
 21 40  1  0  0  0  0
 21 41  1  0  0  0  0
 22 23  2  0  0  0  0
 22 42  1  0  0  0  0
 23 24  1  0  0  0  0
 23 25  1  0  0  0  0
 24 43  1  0  0  0  0
 24 44  1  0  0  0  0
 24 45  1  0  0  0  0
 25 46  1  0  0  0  0
 25 47  1  0  0  0  0
 25 48  1  0  0  0  0
 26 27  1  0  0  0  0
 27 49  1  0  0  0  0
 27 50  1  0  0  0  0
 27 51  1  0  0  0  0
 28 52  1  0  0  0  0
 29 53  1  0  0  0  0
 30 54  1  0  0  0  0
 30 55  1  0  0  0  0
 30 56  1  0  0  0  0
M  END
>  <cansmi>
COc1c(O)cc2c(c1CC=C(C)C)c(=O)c1c(o2)cc(c(c1O)CC=C(C)C)O

>  <HBA2>
6

>  <HBD>
3

>  <logP>
5.089

>  <TPSA>
100.13

>  <MW>
410.46

$$$$
ZINC03860633
 OpenBabel02121623173D

 24 24  0  0  1  0  0  0  0  0999 V2000
   -0.0171    1.4086    0.0098 C   0  0  0  0  0  0  0  0  0  0  0  0
    1.1525    2.0867    0.0023 C   0  0  0  0  0  0  0  0  0  0  0  0
    2.3359    1.4277   -0.0126 N   0  0  0  0  0  0  0  0  0  0  0  0
    2.3918    0.0702   -0.0204 C   0  0  0  0  0  0  0  0  0  0  0  0
    1.2556   -0.6667   -0.0135 C   0  0  0  0  0  0  0  0  0  0  0  0
    0.0021   -0.0041    0.0020 C   0  0  0  0  0  0  0  0  0  0  0  0
   -1.0411   -0.6423    0.0090 O   0  0  0  0  0  0  0  0  0  0  0  0
    1.3161   -2.0263   -0.0218 O   0  0  0  0  0  0  0  0  0  0  0  0
    3.5833    2.1960   -0.0209 C   0  0  0  0  0  0  0  0  0  0  0  0
    4.0316    2.4562    1.4187 C   0  0  2  0  0  0  0  0  0  0  0  0
    3.3024    3.0955    1.9163 H   0  0  0  0  0  0  0  0  0  0  0  0
    5.3753    3.1383    1.4108 C   0  0  0  0  0  0  0  0  0  0  0  0
    5.4410    4.3555    1.3864 O   0  0  0  0  0  0  0  0  0  0  0  0
    6.3969    2.4730    1.4289 O   0  5  0  0  0  0  0  0  0  0  0  0
    4.1348    1.1794    2.1377 N   0  3  0  0  0  0  0  0  0  0  0  0
   -0.9564    1.9413    0.0261 H   0  0  0  0  0  0  0  0  0  0  0  0
    1.1431    3.1666    0.0078 H   0  0  0  0  0  0  0  0  0  0  0  0
    3.3512   -0.4257   -0.0326 H   0  0  0  0  0  0  0  0  0  0  0  0
    0.4512   -2.4586   -0.0159 H   0  0  0  0  0  0  0  0  0  0  0  0
    4.3543    1.6313   -0.5451 H   0  0  0  0  0  0  0  0  0  0  0  0
    3.4210    3.1469   -0.5283 H   0  0  0  0  0  0  0  0  0  0  0  0
    3.2351    0.7226    2.1430 H   0  0  0  0  0  0  0  0  0  0  0  0
    4.8097    0.5875    1.6771 H   0  0  0  0  0  0  0  0  0  0  0  0
    4.4304    1.3509    3.0871 H   0  0  0  0  0  0  0  0  0  0  0  0
  1  6  1  0  0  0  0
  1  2  2  0  0  0  0
  1 16  1  0  0  0  0
  2  3  1  0  0  0  0
  2 17  1  0  0  0  0
  3  4  1  0  0  0  0
  3  9  1  0  0  0  0
  4  5  2  0  0  0  0
  4 18  1  0  0  0  0
  5  6  1  0  0  0  0
  5  8  1  0  0  0  0
  6  7  2  0  0  0  0
  8 19  1  0  0  0  0
  9 10  1  0  0  0  0
  9 20  1  0  0  0  0
  9 21  1  0  0  0  0
 10 11  1  1  0  0  0
 10 12  1  0  0  0  0
 10 15  1  0  0  0  0
 12 13  2  0  0  0  0
 12 14  1  0  0  0  0
 15 22  1  0  0  0  0
 15 23  1  0  0  0  0
 15 24  1  0  0  0  0
M  CHG  2  14  -1  15   1
M  END
>  <cansmi>
[O-]C(=O)[C@@H](Cn1ccc(=O)c(c1)O)[NH3+]

>  <HBA2>
5

>  <HBD>
2

>  <logP>
-3.0857

>  <TPSA>
110

>  <MW>
198.176

$$$$
ZINC00403588
 OpenBabel02121623173D

 26 26  0  0  1  0  0  0  0  0999 V2000
   -0.0178    1.4648    0.0101 C   0  0  0  0  0  0  0  0  0  0  0  0
    0.0021   -0.0041    0.0020 N   0  3  0  0  0  0  0  0  0  0  0  0
    0.7126   -0.4907    1.1921 C   0  0  0  0  0  0  0  0  0  0  0  0
    0.7333   -2.0205    1.1837 C   0  0  1  0  0  0  0  0  0  0  0  0
    1.2435   -2.3721    0.2869 H   0  0  0  0  0  0  0  0  0  0  0  0
    1.4622   -2.5197    2.4046 C   0  0  0  0  0  0  0  0  0  0  0  0
    0.7832   -2.6725    3.5994 C   0  0  0  0  0  0  0  0  0  0  0  0
    1.4492   -3.1295    4.7201 C   0  0  0  0  0  0  0  0  0  0  0  0
    2.8003   -3.4357    4.6459 C   0  0  0  0  0  0  0  0  0  0  0  0
    3.4791   -3.2820    3.4459 C   0  0  0  0  0  0  0  0  0  0  0  0
    2.8074   -2.8296    2.3267 C   0  0  0  0  0  0  0  0  0  0  0  0
    3.4578   -3.8851    5.7472 O   0  0  0  0  0  0  0  0  0  0  0  0
   -0.6073   -2.5152    1.1939 O   0  0  0  0  0  0  0  0  0  0  0  0
    1.0047    1.8421    0.0024 H   0  0  0  0  0  0  0  0  0  0  0  0
   -0.5450    1.8259   -0.8730 H   0  0  0  0  0  0  0  0  0  0  0  0
   -0.5280    1.8163    0.9069 H   0  0  0  0  0  0  0  0  0  0  0  0
   -0.9445   -0.3533    0.0092 H   0  0  0  0  0  0  0  0  0  0  0  0
    1.7352   -0.1134    1.1844 H   0  0  0  0  0  0  0  0  0  0  0  0
    0.2024   -0.1392    2.0889 H   0  0  0  0  0  0  0  0  0  0  0  0
   -0.2685   -2.4340    3.6566 H   0  0  0  0  0  0  0  0  0  0  0  0
    0.9186   -3.2480    5.6533 H   0  0  0  0  0  0  0  0  0  0  0  0
    4.5309   -3.5197    3.3856 H   0  0  0  0  0  0  0  0  0  0  0  0
    3.3344   -2.7140    1.3911 H   0  0  0  0  0  0  0  0  0  0  0  0
    3.4475   -4.8469    5.8462 H   0  0  0  0  0  0  0  0  0  0  0  0
   -1.1219   -2.2410    1.9653 H   0  0  0  0  0  0  0  0  0  0  0  0
    0.4744   -0.3295   -0.8281 H   0  0  0  0  0  0  0  0  0  0  0  0
  1  2  1  0  0  0  0
  1 14  1  0  0  0  0
  1 15  1  0  0  0  0
  1 16  1  0  0  0  0
  2  3  1  0  0  0  0
  2 17  1  0  0  0  0
  2 26  1  0  0  0  0
  3  4  1  0  0  0  0
  3 18  1  0  0  0  0
  3 19  1  0  0  0  0
  4  5  1  6  0  0  0
  4  6  1  0  0  0  0
  4 13  1  0  0  0  0
  6 11  2  0  0  0  0
  6  7  1  0  0  0  0
  7  8  2  0  0  0  0
  7 20  1  0  0  0  0
  8  9  1  0  0  0  0
  8 21  1  0  0  0  0
  9 10  2  0  0  0  0
  9 12  1  0  0  0  0
 10 11  1  0  0  0  0
 10 22  1  0  0  0  0
 11 23  1  0  0  0  0
 12 24  1  0  0  0  0
 13 25  1  0  0  0  0
M  CHG  1   2   1
M  END
>  <cansmi>
O[C@H](c1ccc(cc1)O)C[NH2+]C

>  <HBA2>
2

>  <HBD>
3

>  <logP>
-0.3812

>  <TPSA>
57.07

>  <MW>
168.213

$$$$
ZINC00621853
 OpenBabel02121623173D

 54 56  0  0  1  0  0  0  0  0999 V2000
   -0.0284    1.4293   -0.4778 C   0  0  0  0  0  0  0  0  0  0  0  0
   -0.0129   -0.0745   -0.3804 C   0  0  0  0  0  0  0  0  0  0  0  0
    1.0419   -0.6727   -0.4014 O   0  0  0  0  0  0  0  0  0  0  0  0
   -1.1713   -0.7546   -0.2699 N   0  0  0  0  0  0  0  0  0  0  0  0
   -1.1562   -2.2164   -0.1752 C   0  0  1  0  0  0  0  0  0  0  0  0
   -0.2762   -2.5266    0.3883 H   0  0  0  0  0  0  0  0  0  0  0  0
   -2.3999   -2.6766    0.5586 C   0  0  0  0  0  0  0  0  0  0  0  0
   -2.6213   -4.1756    0.3776 C   0  0  0  0  0  0  0  0  0  0  0  0
   -1.3153   -4.9067    0.5534 C   0  0  0  0  0  0  0  0  0  0  0  0
   -1.0582   -5.5960    1.7202 C   0  0  0  0  0  0  0  0  0  0  0  0
    0.1423   -6.2778    1.8745 C   0  0  0  0  0  0  0  0  0  0  0  0
    1.0898   -6.2717    0.8565 C   0  0  0  0  0  0  0  0  0  0  0  0
    0.8389   -5.5766   -0.3193 C   0  0  0  0  0  0  0  0  0  0  0  0
   -0.3691   -4.8877   -0.4655 C   0  0  0  0  0  0  0  0  0  0  0  0
   -0.6334   -4.1159   -1.7162 C   0  0  0  0  0  0  0  0  0  0  0  0
   -1.0800   -2.8009   -1.5711 C   0  0  0  0  0  0  0  0  0  0  0  0
   -1.4567   -1.9931   -2.5770 C   0  0  0  0  0  0  0  0  0  0  0  0
   -1.4974   -2.1542   -3.9332 C   0  0  0  0  0  0  0  0  0  0  0  0
   -1.9764   -1.2222   -4.5653 O   0  0  0  0  0  0  0  0  0  0  0  0
   -1.0654   -3.2383   -4.6895 C   0  0  0  0  0  0  0  0  0  0  0  0
   -0.5761   -4.4044   -4.1889 C   0  0  0  0  0  0  0  0  0  0  0  0
   -0.4083   -4.7668   -2.9017 C   0  0  0  0  0  0  0  0  0  0  0  0
   -1.1385   -3.1234   -6.0380 O   0  0  0  0  0  0  0  0  0  0  0  0
   -0.6931   -4.2409   -6.8094 C   0  0  0  0  0  0  0  0  0  0  0  0
    1.7595   -5.5657   -1.3188 O   0  0  0  0  0  0  0  0  0  0  0  0
    2.8002   -4.5904   -1.2317 C   0  0  0  0  0  0  0  0  0  0  0  0
    2.2617   -6.9458    1.0126 O   0  0  0  0  0  0  0  0  0  0  0  0
    2.2856   -8.3114    0.5923 C   0  0  0  0  0  0  0  0  0  0  0  0
    0.3920   -6.9547    3.0264 O   0  0  0  0  0  0  0  0  0  0  0  0
   -0.6230   -6.9211    4.0317 C   0  0  0  0  0  0  0  0  0  0  0  0
    0.9938    1.7986   -0.5602 H   0  0  0  0  0  0  0  0  0  0  0  0
   -0.5957    1.7305   -1.3585 H   0  0  0  0  0  0  0  0  0  0  0  0
   -0.4946    1.8464    0.4148 H   0  0  0  0  0  0  0  0  0  0  0  0
   -2.0149   -0.2761   -0.2531 H   0  0  0  0  0  0  0  0  0  0  0  0
   -2.2905   -2.4569    1.6206 H   0  0  0  0  0  0  0  0  0  0  0  0
   -3.2642   -2.1380    0.1701 H   0  0  0  0  0  0  0  0  0  0  0  0
   -3.3373   -4.5286    1.1197 H   0  0  0  0  0  0  0  0  0  0  0  0
   -3.0121   -4.3664   -0.6219 H   0  0  0  0  0  0  0  0  0  0  0  0
   -1.7902   -5.6054    2.5142 H   0  0  0  0  0  0  0  0  0  0  0  0
   -1.7954   -1.0220   -2.2473 H   0  0  0  0  0  0  0  0  0  0  0  0
   -0.2789   -5.1392   -4.9226 H   0  0  0  0  0  0  0  0  0  0  0  0
   -0.0246   -5.7689   -2.7793 H   0  0  0  0  0  0  0  0  0  0  0  0
   -1.2900   -5.1174   -6.5574 H   0  0  0  0  0  0  0  0  0  0  0  0
   -0.8052   -4.0177   -7.8704 H   0  0  0  0  0  0  0  0  0  0  0  0
    0.3557   -4.4397   -6.5888 H   0  0  0  0  0  0  0  0  0  0  0  0
    3.4194   -4.7966   -0.3586 H   0  0  0  0  0  0  0  0  0  0  0  0
    3.4145   -4.6331   -2.1311 H   0  0  0  0  0  0  0  0  0  0  0  0
    2.3606   -3.5973   -1.1389 H   0  0  0  0  0  0  0  0  0  0  0  0
    1.9730   -8.3763   -0.4499 H   0  0  0  0  0  0  0  0  0  0  0  0
    3.2970   -8.7050    0.6934 H   0  0  0  0  0  0  0  0  0  0  0  0
    1.6051   -8.8945    1.2127 H   0  0  0  0  0  0  0  0  0  0  0  0
   -1.5429   -7.3495    3.6338 H   0  0  0  0  0  0  0  0  0  0  0  0
   -0.2973   -7.4993    4.8964 H   0  0  0  0  0  0  0  0  0  0  0  0
   -0.8031   -5.8888    4.3318 H   0  0  0  0  0  0  0  0  0  0  0  0
  1  2  1  0  0  0  0
  1 31  1  0  0  0  0
  1 32  1  0  0  0  0
  1 33  1  0  0  0  0
  2  3  2  0  0  0  0
  2  4  1  0  0  0  0
  4  5  1  0  0  0  0
  4 34  1  0  0  0  0
  5  6  1  1  0  0  0
  5 16  1  0  0  0  0
  5  7  1  0  0  0  0
  7  8  1  0  0  0  0
  7 35  1  0  0  0  0
  7 36  1  0  0  0  0
  8  9  1  0  0  0  0
  8 37  1  0  0  0  0
  8 38  1  0  0  0  0
  9 14  2  0  0  0  0
  9 10  1  0  0  0  0
 10 11  2  0  0  0  0
 10 39  1  0  0  0  0
 11 12  1  0  0  0  0
 11 29  1  0  0  0  0
 12 13  2  0  0  0  0
 12 27  1  0  0  0  0
 13 14  1  0  0  0  0
 13 25  1  0  0  0  0
 14 15  1  0  0  0  0
 15 22  2  0  0  0  0
 15 16  1  0  0  0  0
 16 17  2  0  0  0  0
 17 18  1  0  0  0  0
 17 40  1  0  0  0  0
 18 19  2  0  0  0  0
 18 20  1  0  0  0  0
 20 21  2  0  0  0  0
 20 23  1  0  0  0  0
 21 22  1  0  0  0  0
 21 41  1  0  0  0  0
 22 42  1  0  0  0  0
 23 24  1  0  0  0  0
 24 43  1  0  0  0  0
 24 44  1  0  0  0  0
 24 45  1  0  0  0  0
 25 26  1  0  0  0  0
 26 46  1  0  0  0  0
 26 47  1  0  0  0  0
 26 48  1  0  0  0  0
 27 28  1  0  0  0  0
 28 49  1  0  0  0  0
 28 50  1  0  0  0  0
 28 51  1  0  0  0  0
 29 30  1  0  0  0  0
 30 52  1  0  0  0  0
 30 53  1  0  0  0  0
 30 54  1  0  0  0  0
M  END
>  <cansmi>
COc1c(OC)cc2c(c1OC)c1ccc(c(=O)cc1[C@H](CC2)NC(=O)C)OC

>  <HBA2>
7

>  <HBD>
1

>  <logP>
3.2625

>  <TPSA>
83.09

>  <MW>
399.437

$$$$
ZINC45496595
 OpenBabel02121623173D

 81 85  0  0  1  0  0  0  0  0999 V2000
    1.1277    1.3853    0.4684 C   0  0  0  0  0  0  0  0  0  0  0  0
    1.0211   -0.1331    0.3986 C   0  0  2  0  0  0  0  0  0  0  0  0
   -0.3401   -0.5278    1.0074 C   0  0  0  0  0  0  0  0  0  0  0  0
   -0.3696   -0.1613    2.4876 C   0  0  0  0  0  0  0  0  0  0  0  0
    0.6960   -0.9475    3.2406 C   0  0  1  0  0  0  0  0  0  0  0  0
    0.4749   -2.0170    3.1656 H   0  0  0  0  0  0  0  0  0  0  0  0
    2.0944   -0.6932    2.6699 C   0  0  0  0  0  0  0  0  0  0  0  0
    2.1207   -0.8468    1.1666 C   0  0  2  0  0  0  0  0  0  0  0  0
    1.9193   -1.9450    0.9867 H   0  0  0  0  0  0  0  0  0  0  0  0
    3.4868   -0.6059    0.5435 C   0  0  1  0  0  0  0  0  0  0  0  0
    4.2494   -1.1688    1.1093 H   0  0  0  0  0  0  0  0  0  0  0  0
    3.4875   -1.1900   -0.8761 C   0  0  0  0  0  0  0  0  0  0  0  0
    2.3766   -0.6118   -1.7391 C   0  0  2  0  0  0  0  0  0  0  0  0
    1.0203   -0.6299   -1.0493 C   0  0  2  0  0  0  0  0  0  0  0  0
    0.6552   -1.6752   -1.0093 H   0  0  0  0  0  0  0  0  0  0  0  0
    0.0162    0.1599   -1.8916 C   0  0  0  0  0  0  0  0  0  0  0  0
    0.0671   -0.3140   -3.3159 C   0  0  0  0  0  0  0  0  0  0  0  0
    1.0628   -0.9817   -3.8389 C   0  0  0  0  0  0  0  0  0  0  0  0
    2.2666   -1.4080   -3.0526 C   0  0  1  0  0  0  0  0  0  0  0  0
    3.5513   -1.2929   -3.8620 C   0  0  0  0  0  0  0  0  0  0  0  0
    3.3698   -1.8317   -5.2830 C   0  0  0  0  0  0  0  0  0  0  0  0
    2.2638   -1.0703   -6.0062 C   0  0  2  0  0  0  0  0  0  0  0  0
    0.9299   -1.3303   -5.3113 C   0  0  1  0  0  0  0  0  0  0  0  0
    0.1680   -0.6678   -5.7506 H   0  0  0  0  0  0  0  0  0  0  0  0
    0.4982   -2.7807   -5.4728 C   0  0  0  0  0  0  0  0  0  0  0  0
    0.4099   -3.1739   -6.9476 C   0  0  0  0  0  0  0  0  0  0  0  0
    1.7574   -2.9343   -7.6250 C   0  0  0  0  0  0  0  0  0  0  0  0
    2.1961   -1.4839   -7.4746 C   0  0  0  0  0  0  0  0  0  0  0  0
    0.0714   -4.6696   -7.0372 C   0  0  0  0  0  0  0  0  0  0  0  0
   -0.6910   -2.3787   -7.6469 C   0  0  0  0  0  0  0  0  0  0  0  0
    2.5566    0.4130   -5.9620 C   0  0  0  0  0  0  0  0  0  0  0  0
    3.5828    0.8468   -6.4571 O   0  0  0  0  0  0  0  0  0  0  0  0
    1.7663    1.1748   -5.4314 O   0  5  0  0  0  0  0  0  0  0  0  0
    2.0793   -2.8863   -2.6878 C   0  0  0  0  0  0  0  0  0  0  0  0
    2.7472    0.8290   -2.1288 C   0  0  0  0  0  0  0  0  0  0  0  0
    3.8821    0.7557    0.5302 O   0  0  0  0  0  0  0  0  0  0  0  0
    3.0127   -1.7761    3.2881 C   0  0  0  0  0  0  0  0  0  0  0  0
    2.6055    0.6614    3.1552 C   0  0  0  0  0  0  0  0  0  0  0  0
    0.6790   -0.5732    4.6220 O   0  0  0  0  0  0  0  0  0  0  0  0
    2.1372    1.6917    0.1945 H   0  0  0  0  0  0  0  0  0  0  0  0
    0.4125    1.8319   -0.2225 H   0  0  0  0  0  0  0  0  0  0  0  0
    0.9094    1.7186    1.4830 H   0  0  0  0  0  0  0  0  0  0  0  0
   -1.1291    0.0069    0.4802 H   0  0  0  0  0  0  0  0  0  0  0  0
   -0.4799   -1.6011    0.8882 H   0  0  0  0  0  0  0  0  0  0  0  0
   -0.2364    0.9059    2.6344 H   0  0  0  0  0  0  0  0  0  0  0  0
   -1.3561   -0.4313    2.8931 H   0  0  0  0  0  0  0  0  0  0  0  0
    4.4567   -0.9600   -1.3361 H   0  0  0  0  0  0  0  0  0  0  0  0
    3.4148   -2.2710   -0.7704 H   0  0  0  0  0  0  0  0  0  0  0  0
   -0.9942   -0.0273   -1.5047 H   0  0  0  0  0  0  0  0  0  0  0  0
    0.1963    1.2279   -1.8688 H   0  0  0  0  0  0  0  0  0  0  0  0
   -0.7756   -0.0914   -3.9567 H   0  0  0  0  0  0  0  0  0  0  0  0
    3.9537   -0.2910   -3.9052 H   0  0  0  0  0  0  0  0  0  0  0  0
    4.3194   -1.9197   -3.3700 H   0  0  0  0  0  0  0  0  0  0  0  0
    4.3086   -1.7023   -5.8319 H   0  0  0  0  0  0  0  0  0  0  0  0
    3.1320   -2.8930   -5.2523 H   0  0  0  0  0  0  0  0  0  0  0  0
    1.2195   -3.4482   -4.9967 H   0  0  0  0  0  0  0  0  0  0  0  0
   -0.4779   -2.9279   -5.0042 H   0  0  0  0  0  0  0  0  0  0  0  0
    2.5080   -3.5925   -7.1799 H   0  0  0  0  0  0  0  0  0  0  0  0
    1.6726   -3.1786   -8.6884 H   0  0  0  0  0  0  0  0  0  0  0  0
    1.5111   -0.8220   -8.0053 H   0  0  0  0  0  0  0  0  0  0  0  0
    3.1920   -1.3631   -7.9171 H   0  0  0  0  0  0  0  0  0  0  0  0
   -0.8835   -4.8561   -6.5458 H   0  0  0  0  0  0  0  0  0  0  0  0
    0.0050   -4.9650   -8.0843 H   0  0  0  0  0  0  0  0  0  0  0  0
    0.8525   -5.2490   -6.5451 H   0  0  0  0  0  0  0  0  0  0  0  0
   -0.4704   -1.3136   -7.5766 H   0  0  0  0  0  0  0  0  0  0  0  0
   -0.7400   -2.6711   -8.6958 H   0  0  0  0  0  0  0  0  0  0  0  0
   -1.6480   -2.5840   -7.1674 H   0  0  0  0  0  0  0  0  0  0  0  0
    1.1205   -3.0181   -2.1865 H   0  0  0  0  0  0  0  0  0  0  0  0
    2.1011   -3.4900   -3.5950 H   0  0  0  0  0  0  0  0  0  0  0  0
    2.8834   -3.2010   -2.0225 H   0  0  0  0  0  0  0  0  0  0  0  0
    3.7209    0.8339   -2.6187 H   0  0  0  0  0  0  0  0  0  0  0  0
    1.9952    1.2257   -2.8109 H   0  0  0  0  0  0  0  0  0  0  0  0
    2.7881    1.4486   -1.2330 H   0  0  0  0  0  0  0  0  0  0  0  0
    4.7507    0.9092    0.1340 H   0  0  0  0  0  0  0  0  0  0  0  0
    2.6478   -2.7646    3.0089 H   0  0  0  0  0  0  0  0  0  0  0  0
    4.0292   -1.6458    2.9166 H   0  0  0  0  0  0  0  0  0  0  0  0
    3.0076   -1.6803    4.3739 H   0  0  0  0  0  0  0  0  0  0  0  0
    2.7415    0.6324    4.2362 H   0  0  0  0  0  0  0  0  0  0  0  0
    3.5585    0.8834    2.6749 H   0  0  0  0  0  0  0  0  0  0  0  0
    1.8814    1.4353    2.9007 H   0  0  0  0  0  0  0  0  0  0  0  0
   -0.1645   -0.7403    5.0644 H   0  0  0  0  0  0  0  0  0  0  0  0
  1 40  1  0  0  0  0
  1 41  1  0  0  0  0
  1 42  1  0  0  0  0
  2  1  1  1  0  0  0
  2  8  1  0  0  0  0
  2 14  1  0  0  0  0
  2  3  1  0  0  0  0
  3  4  1  0  0  0  0
  3 43  1  0  0  0  0
  3 44  1  0  0  0  0
  4  5  1  0  0  0  0
  4 45  1  0  0  0  0
  4 46  1  0  0  0  0
  5  6  1  6  0  0  0
  5  7  1  0  0  0  0
  5 39  1  0  0  0  0
  7  8  1  0  0  0  0
  7 37  1  0  0  0  0
  7 38  1  0  0  0  0
  8  9  1  6  0  0  0
  8 10  1  0  0  0  0
 10 11  1  1  0  0  0
 10 12  1  0  0  0  0
 10 36  1  0  0  0  0
 12 13  1  0  0  0  0
 12 47  1  0  0  0  0
 12 48  1  0  0  0  0
 13 19  1  0  0  0  0
 13 14  1  0  0  0  0
 13 35  1  6  0  0  0
 14 15  1  1  0  0  0
 14 16  1  0  0  0  0
 16 17  1  0  0  0  0
 16 49  1  0  0  0  0
 16 50  1  0  0  0  0
 17 18  2  0  0  0  0
 17 51  1  0  0  0  0
 18 23  1  0  0  0  0
 18 19  1  0  0  0  0
 19 20  1  0  0  0  0
 19 34  1  1  0  0  0
 20 21  1  0  0  0  0
 20 52  1  0  0  0  0
 20 53  1  0  0  0  0
 21 22  1  0  0  0  0
 21 54  1  0  0  0  0
 21 55  1  0  0  0  0
 22 28  1  0  0  0  0
 22 23  1  0  0  0  0
 22 31  1  1  0  0  0
 23 24  1  6  0  0  0
 23 25  1  0  0  0  0
 25 26  1  0  0  0  0
 25 56  1  0  0  0  0
 25 57  1  0  0  0  0
 26 27  1  0  0  0  0
 26 29  1  0  0  0  0
 26 30  1  0  0  0  0
 27 28  1  0  0  0  0
 27 58  1  0  0  0  0
 27 59  1  0  0  0  0
 28 60  1  0  0  0  0
 28 61  1  0  0  0  0
 29 62  1  0  0  0  0
 29 63  1  0  0  0  0
 29 64  1  0  0  0  0
 30 65  1  0  0  0  0
 30 66  1  0  0  0  0
 30 67  1  0  0  0  0
 31 32  2  0  0  0  0
 31 33  1  0  0  0  0
 34 68  1  0  0  0  0
 34 69  1  0  0  0  0
 34 70  1  0  0  0  0
 35 71  1  0  0  0  0
 35 72  1  0  0  0  0
 35 73  1  0  0  0  0
 36 74  1  0  0  0  0
 37 75  1  0  0  0  0
 37 76  1  0  0  0  0
 37 77  1  0  0  0  0
 38 78  1  0  0  0  0
 38 79  1  0  0  0  0
 38 80  1  0  0  0  0
 39 81  1  0  0  0  0
M  CHG  1  33  -1
M  END
>  <cansmi>
O[C@@H]1C[C@]2(C)[C@@H]([C@@]3([C@@H]1C(C)(C)[C@H](CC3)O)C)CC=C1[C@@]2(C)CC[C@@]2([C@H]1CC(CC2)(C)C)C(=O)[O-]

>  <HBA2>
4

>  <HBD>
2

>  <logP>
4.8697

>  <TPSA>
80.59

>  <MW>
471.692

$$$$
ZINC04097188
 OpenBabel02121623173D

 68 72  0  0  1  0  0  0  0  0999 V2000
   -0.0187    1.5258    0.0104 C   0  0  0  0  0  0  0  0  0  0  0  0
    0.0021   -0.0041    0.0020 C   0  0  1  0  0  0  0  0  0  0  0  0
   -1.0107   -0.3920    0.1113 H   0  0  0  0  0  0  0  0  0  0  0  0
    0.6266   -0.5176   -1.3119 C   0  0  1  0  0  0  0  0  0  0  0  0
   -0.1119   -0.6752   -2.0979 H   0  0  0  0  0  0  0  0  0  0  0  0
    1.7513    0.4610   -1.7327 C   0  0  0  0  0  0  0  0  0  0  0  0
    3.0882   -0.3174   -1.6037 C   0  0  0  0  0  0  0  0  0  0  0  0
    2.6513   -1.7814   -1.7325 C   0  0  2  0  0  0  0  0  0  0  0  0
    2.4325   -2.0219   -2.7729 H   0  0  0  0  0  0  0  0  0  0  0  0
    1.3395   -1.8095   -0.8929 C   0  0  2  0  0  0  0  0  0  0  0  0
    0.6189   -3.1144   -1.1352 C   0  0  0  0  0  0  0  0  0  0  0  0
    1.5255   -4.2387   -0.6081 C   0  0  0  0  0  0  0  0  0  0  0  0
    2.9025   -4.2081   -1.2664 C   0  0  1  0  0  0  0  0  0  0  0  0
    2.7799   -4.4153   -2.3295 H   0  0  0  0  0  0  0  0  0  0  0  0
    3.6083   -2.8046   -1.1440 C   0  0  1  0  0  0  0  0  0  0  0  0
    3.8076   -2.5762   -0.0970 H   0  0  0  0  0  0  0  0  0  0  0  0
    4.9054   -2.8147   -1.9610 C   0  0  0  0  0  0  0  0  0  0  0  0
    5.7800   -3.9386   -1.4875 C   0  0  0  0  0  0  0  0  0  0  0  0
    5.3091   -5.0156   -0.9305 C   0  0  0  0  0  0  0  0  0  0  0  0
    3.7793   -5.2940   -0.6651 C   0  0  2  0  0  0  0  0  0  0  0  0
    3.3854   -6.6607   -1.2326 C   0  0  0  0  0  0  0  0  0  0  0  0
    4.2846   -7.7398   -0.6263 C   0  0  0  0  0  0  0  0  0  0  0  0
    5.7383   -7.4868   -1.0294 C   0  0  1  0  0  0  0  0  0  0  0  0
    5.8126   -7.4485   -2.1162 H   0  0  0  0  0  0  0  0  0  0  0  0
    6.2918   -6.0912   -0.4987 C   0  0  0  0  0  0  0  0  0  0  0  0
    6.5843   -8.5737   -0.5188 N   0  3  0  0  0  0  0  0  0  0  0  0
    6.1344   -9.8521   -1.0856 C   0  0  0  0  0  0  0  0  0  0  0  0
    7.9804   -8.3307   -0.9059 C   0  0  0  0  0  0  0  0  0  0  0  0
    3.5249   -5.3314    0.8432 C   0  0  0  0  0  0  0  0  0  0  0  0
    1.6785   -1.6179    0.5905 C   0  0  0  0  0  0  0  0  0  0  0  0
    0.8553   -0.5039    1.0939 N   0  3  1  0  0  0  0  0  0  0  0  0
    1.7293    0.5772    1.5687 C   0  0  0  0  0  0  0  0  0  0  0  0
    0.9999    1.9024    0.1036 H   0  0  0  0  0  0  0  0  0  0  0  0
   -0.4565    1.8883   -0.9196 H   0  0  0  0  0  0  0  0  0  0  0  0
   -0.6143    1.8764    0.8533 H   0  0  0  0  0  0  0  0  0  0  0  0
    1.6026    0.7791   -2.7646 H   0  0  0  0  0  0  0  0  0  0  0  0
    1.7586    1.3277   -1.0717 H   0  0  0  0  0  0  0  0  0  0  0  0
    3.7708   -0.0468   -2.4093 H   0  0  0  0  0  0  0  0  0  0  0  0
    3.5471   -0.1364   -0.6316 H   0  0  0  0  0  0  0  0  0  0  0  0
   -0.3296   -3.1199   -0.5982 H   0  0  0  0  0  0  0  0  0  0  0  0
    0.4432   -3.2488   -2.2025 H   0  0  0  0  0  0  0  0  0  0  0  0
    1.6440   -4.1243    0.4694 H   0  0  0  0  0  0  0  0  0  0  0  0
    1.0549   -5.2004   -0.8126 H   0  0  0  0  0  0  0  0  0  0  0  0
    4.6701   -2.9562   -3.0158 H   0  0  0  0  0  0  0  0  0  0  0  0
    5.4269   -1.8668   -1.8277 H   0  0  0  0  0  0  0  0  0  0  0  0
    6.8487   -3.8493   -1.6154 H   0  0  0  0  0  0  0  0  0  0  0  0
    2.3454   -6.8718   -0.9837 H   0  0  0  0  0  0  0  0  0  0  0  0
    3.5061   -6.6531   -2.3159 H   0  0  0  0  0  0  0  0  0  0  0  0
    4.1999   -7.7141    0.4601 H   0  0  0  0  0  0  0  0  0  0  0  0
    3.9725   -8.7186   -0.9905 H   0  0  0  0  0  0  0  0  0  0  0  0
    7.2866   -5.8521   -0.8747 H   0  0  0  0  0  0  0  0  0  0  0  0
    6.3149   -6.1520    0.5894 H   0  0  0  0  0  0  0  0  0  0  0  0
    6.2087   -9.8138   -2.1724 H   0  0  0  0  0  0  0  0  0  0  0  0
    6.7622  -10.6586   -0.7067 H   0  0  0  0  0  0  0  0  0  0  0  0
    5.0985  -10.0324   -0.7983 H   0  0  0  0  0  0  0  0  0  0  0  0
    8.3143   -7.3822   -0.4853 H   0  0  0  0  0  0  0  0  0  0  0  0
    8.6082   -9.1372   -0.5270 H   0  0  0  0  0  0  0  0  0  0  0  0
    8.0547   -8.2924   -1.9927 H   0  0  0  0  0  0  0  0  0  0  0  0
    2.4738   -5.5523    1.0290 H   0  0  0  0  0  0  0  0  0  0  0  0
    4.1445   -6.1048    1.2971 H   0  0  0  0  0  0  0  0  0  0  0  0
    3.7751   -4.3637    1.2779 H   0  0  0  0  0  0  0  0  0  0  0  0
    1.4462   -2.5280    1.1437 H   0  0  0  0  0  0  0  0  0  0  0  0
    2.7357   -1.3763    0.7002 H   0  0  0  0  0  0  0  0  0  0  0  0
    1.1195    1.4035    1.9341 H   0  0  0  0  0  0  0  0  0  0  0  0
    2.3601    0.2062    2.3765 H   0  0  0  0  0  0  0  0  0  0  0  0
    2.3568    0.9241    0.7477 H   0  0  0  0  0  0  0  0  0  0  0  0
    0.2758   -0.8278    1.8537 H   0  0  0  0  0  0  0  0  0  0  0  0
    6.5156   -8.6091    0.4873 H   0  0  0  0  0  0  0  0  0  0  0  0
  1  2  1  0  0  0  0
  1 33  1  0  0  0  0
  1 34  1  0  0  0  0
  1 35  1  0  0  0  0
  2  3  1  1  0  0  0
  2 31  1  0  0  0  0
  2  4  1  0  0  0  0
  4  5  1  6  0  0  0
  4 10  1  0  0  0  0
  4  6  1  0  0  0  0
  6  7  1  0  0  0  0
  6 36  1  0  0  0  0
  6 37  1  0  0  0  0
  7  8  1  0  0  0  0
  7 38  1  0  0  0  0
  7 39  1  0  0  0  0
  8  9  1  6  0  0  0
  8 15  1  0  0  0  0
  8 10  1  0  0  0  0
 10 11  1  6  0  0  0
 10 30  1  0  0  0  0
 11 12  1  0  0  0  0
 11 40  1  0  0  0  0
 11 41  1  0  0  0  0
 12 13  1  0  0  0  0
 12 42  1  0  0  0  0
 12 43  1  0  0  0  0
 13 14  1  6  0  0  0
 13 20  1  0  0  0  0
 13 15  1  0  0  0  0
 15 16  1  1  0  0  0
 15 17  1  0  0  0  0
 17 18  1  0  0  0  0
 17 44  1  0  0  0  0
 17 45  1  0  0  0  0
 18 19  2  0  0  0  0
 18 46  1  0  0  0  0
 19 25  1  0  0  0  0
 19 20  1  0  0  0  0
 20 21  1  0  0  0  0
 20 29  1  1  0  0  0
 21 22  1  0  0  0  0
 21 47  1  0  0  0  0
 21 48  1  0  0  0  0
 22 23  1  0  0  0  0
 22 49  1  0  0  0  0
 22 50  1  0  0  0  0
 23 24  1  6  0  0  0
 23 25  1  0  0  0  0
 23 26  1  0  0  0  0
 25 51  1  0  0  0  0
 25 52  1  0  0  0  0
 26 27  1  0  0  0  0
 26 28  1  0  0  0  0
 26 68  1  0  0  0  0
 27 53  1  0  0  0  0
 27 54  1  0  0  0  0
 27 55  1  0  0  0  0
 28 56  1  0  0  0  0
 28 57  1  0  0  0  0
 28 58  1  0  0  0  0
 29 59  1  0  0  0  0
 29 60  1  0  0  0  0
 29 61  1  0  0  0  0
 30 31  1  0  0  0  0
 30 62  1  0  0  0  0
 30 63  1  0  0  0  0
 31 32  1  0  0  0  0
 31 67  1  1  0  0  0
 32 64  1  0  0  0  0
 32 65  1  0  0  0  0
 32 66  1  0  0  0  0
M  CHG  2  26   1  31   1
M  END
>  <cansmi>
C[NH+]([C@H]1CC[C@]2(C(=CC[C@@H]3[C@@H]2CC[C@]24[C@H]3CC[C@@H]4[C@@H]([N@@H+](C2)C)C)C1)C)C

>  <HBA2>
0

>  <HBD>
2

>  <logP>
3.5446

>  <TPSA>
8.88

>  <MW>
358.604

$$$$
ZINC04211957
 OpenBabel02121623173D

 55 57  0  0  1  0  0  0  0  0999 V2000
   -0.2157    1.1613   -0.0390 C   0  0  0  0  0  0  0  0  0  0  0  0
   -0.0629   -0.3470   -0.2320 C   0  0  2  0  0  0  0  0  0  0  0  0
   -1.4406   -0.9772   -0.4440 C   0  0  0  0  0  0  0  0  0  0  0  0
   -2.2541   -0.9150    0.8470 C   0  0  0  0  0  0  0  0  0  0  0  0
   -1.5485   -1.7082    1.9398 C   0  0  2  0  0  0  0  0  0  0  0  0
   -2.1302   -1.6389    2.8662 H   0  0  0  0  0  0  0  0  0  0  0  0
   -0.1430   -1.1690    2.2017 C   0  0  1  0  0  0  0  0  0  0  0  0
    0.6609   -1.0162    0.9262 C   0  0  2  0  0  0  0  0  0  0  0  0
    0.9029   -2.0521    0.5803 H   0  0  0  0  0  0  0  0  0  0  0  0
    2.0085   -0.3426    1.1879 C   0  0  0  0  0  0  0  0  0  0  0  0
    2.9148   -0.5571   -0.0328 C   0  0  0  0  0  0  0  0  0  0  0  0
    2.1797   -0.0950   -1.2692 C   0  0  0  0  0  0  0  0  0  0  0  0
    2.7602    0.7139   -2.1256 C   0  0  0  0  0  0  0  0  0  0  0  0
    0.7694   -0.5819   -1.5102 C   0  0  2  0  0  0  0  0  0  0  0  0
    0.7777   -1.6440   -1.7434 H   0  0  0  0  0  0  0  0  0  0  0  0
    0.1594    0.2036   -2.6725 C   0  0  0  0  0  0  0  0  0  0  0  0
    0.8303   -0.2015   -3.9596 C   0  0  0  0  0  0  0  0  0  0  0  0
    0.0976   -0.6193   -4.9891 C   0  0  0  0  0  0  0  0  0  0  0  0
   -1.4164   -0.7479   -5.0552 C   0  0  1  0  0  0  0  0  0  0  0  0
   -1.8921    0.2206   -4.9014 H   0  0  0  0  0  0  0  0  0  0  0  0
   -1.6630   -1.2545   -6.4923 C   0  0  0  0  0  0  0  0  0  0  0  0
   -0.4424   -0.9647   -7.1941 O   0  0  0  0  0  0  0  0  0  0  0  0
    0.5782   -1.0522   -6.3163 C   0  0  0  0  0  0  0  0  0  0  0  0
    1.7047   -1.4277   -6.5755 O   0  0  0  0  0  0  0  0  0  0  0  0
   -1.8848   -1.6966   -4.0946 O   0  0  0  0  0  0  0  0  0  0  0  0
   -0.2299    0.1347    2.9951 C   0  0  0  0  0  0  0  0  0  0  0  0
    0.5654   -2.2087    3.1017 C   0  0  0  0  0  0  0  0  0  0  0  0
   -0.1614   -2.3550    4.3234 O   0  0  0  0  0  0  0  0  0  0  0  0
   -1.4643   -3.0854    1.5596 O   0  0  0  0  0  0  0  0  0  0  0  0
    0.7644    1.6069    0.1313 H   0  0  0  0  0  0  0  0  0  0  0  0
   -0.6634    1.5983   -0.9316 H   0  0  0  0  0  0  0  0  0  0  0  0
   -0.8570    1.3544    0.8209 H   0  0  0  0  0  0  0  0  0  0  0  0
   -1.9812   -0.4345   -1.2219 H   0  0  0  0  0  0  0  0  0  0  0  0
   -1.3220   -2.0164   -0.7517 H   0  0  0  0  0  0  0  0  0  0  0  0
   -2.4036    0.1160    1.1563 H   0  0  0  0  0  0  0  0  0  0  0  0
   -3.2398   -1.3613    0.6620 H   0  0  0  0  0  0  0  0  0  0  0  0
    1.8986    0.7210    1.3699 H   0  0  0  0  0  0  0  0  0  0  0  0
    2.4965   -0.7959    2.0540 H   0  0  0  0  0  0  0  0  0  0  0  0
    3.8304    0.0218    0.0901 H   0  0  0  0  0  0  0  0  0  0  0  0
    3.1596   -1.6155   -0.1214 H   0  0  0  0  0  0  0  0  0  0  0  0
    3.8032    0.9678   -2.0069 H   0  0  0  0  0  0  0  0  0  0  0  0
    2.1946    1.1251   -2.9487 H   0  0  0  0  0  0  0  0  0  0  0  0
   -0.9075   -0.0108   -2.7357 H   0  0  0  0  0  0  0  0  0  0  0  0
    0.3062    1.2708   -2.5065 H   0  0  0  0  0  0  0  0  0  0  0  0
    1.9057   -0.1529   -4.0466 H   0  0  0  0  0  0  0  0  0  0  0  0
   -1.8541   -2.3276   -6.4895 H   0  0  0  0  0  0  0  0  0  0  0  0
   -2.4980   -0.7201   -6.9455 H   0  0  0  0  0  0  0  0  0  0  0  0
   -2.8443   -1.8161   -4.0955 H   0  0  0  0  0  0  0  0  0  0  0  0
   -0.6409   -0.0686    3.9840 H   0  0  0  0  0  0  0  0  0  0  0  0
    0.7663    0.5651    3.0971 H   0  0  0  0  0  0  0  0  0  0  0  0
   -0.8772    0.8371    2.4700 H   0  0  0  0  0  0  0  0  0  0  0  0
    0.6060   -3.1681    2.5860 H   0  0  0  0  0  0  0  0  0  0  0  0
    1.5783   -1.8703    3.3199 H   0  0  0  0  0  0  0  0  0  0  0  0
    0.2265   -2.9931    4.9378 H   0  0  0  0  0  0  0  0  0  0  0  0
   -2.3225   -3.5064    1.4137 H   0  0  0  0  0  0  0  0  0  0  0  0
  1 30  1  0  0  0  0
  1 31  1  0  0  0  0
  1 32  1  0  0  0  0
  2  1  1  1  0  0  0
  2  8  1  0  0  0  0
  2 14  1  0  0  0  0
  2  3  1  0  0  0  0
  3  4  1  0  0  0  0
  3 33  1  0  0  0  0
  3 34  1  0  0  0  0
  4  5  1  0  0  0  0
  4 35  1  0  0  0  0
  4 36  1  0  0  0  0
  5  6  1  1  0  0  0
  5  7  1  0  0  0  0
  5 29  1  0  0  0  0
  7  8  1  0  0  0  0
  7 26  1  1  0  0  0
  7 27  1  0  0  0  0
  8  9  1  6  0  0  0
  8 10  1  0  0  0  0
 10 11  1  0  0  0  0
 10 37  1  0  0  0  0
 10 38  1  0  0  0  0
 11 12  1  0  0  0  0
 11 39  1  0  0  0  0
 11 40  1  0  0  0  0
 12 13  2  0  0  0  0
 12 14  1  0  0  0  0
 13 41  1  0  0  0  0
 13 42  1  0  0  0  0
 14 15  1  6  0  0  0
 14 16  1  0  0  0  0
 16 17  1  0  0  0  0
 16 43  1  0  0  0  0
 16 44  1  0  0  0  0
 17 18  2  0  0  0  0
 17 45  1  0  0  0  0
 18 23  1  0  0  0  0
 18 19  1  0  0  0  0
 19 20  1  1  0  0  0
 19 21  1  0  0  0  0
 19 25  1  0  0  0  0
 21 22  1  0  0  0  0
 21 46  1  0  0  0  0
 21 47  1  0  0  0  0
 22 23  1  0  0  0  0
 23 24  2  0  0  0  0
 25 48  1  0  0  0  0
 26 49  1  0  0  0  0
 26 50  1  0  0  0  0
 26 51  1  0  0  0  0
 27 28  1  0  0  0  0
 27 52  1  0  0  0  0
 27 53  1  0  0  0  0
 28 54  1  0  0  0  0
 29 55  1  0  0  0  0
M  END
>  <cansmi>
OC[C@]1(C)[C@H](O)CC[C@]2([C@H]1CCC(=C)[C@@H]2C/C=C/1\[C@H](O)COC1=O)C

>  <HBA2>
5

>  <HBD>
3

>  <logP>
1.9626

>  <TPSA>
86.99

>  <MW>
350.449

$$$$
ZINC00058187
 OpenBabel02121623173D

 22 23  0  0  0  0  0  0  0  0999 V2000
   -0.0184    1.5028    0.0103 C   0  0  0  0  0  0  0  0  0  0  0  0
    0.0021   -0.0041    0.0020 C   0  0  0  0  0  0  0  0  0  0  0  0
    0.0056   -0.6642   -1.1662 C   0  0  0  0  0  0  0  0  0  0  0  0
    0.0259   -2.1412   -1.1916 C   0  0  0  0  0  0  0  0  0  0  0  0
    0.2768   -2.7348   -2.2221 O   0  0  0  0  0  0  0  0  0  0  0  0
   -0.2623   -2.8873    0.0479 C   0  0  0  0  0  0  0  0  0  0  0  0
   -0.2660   -2.1960    1.2756 C   0  0  0  0  0  0  0  0  0  0  0  0
   -0.5349   -2.8795    2.4524 C   0  0  0  0  0  0  0  0  0  0  0  0
   -0.8001   -4.2430    2.4155 C   0  0  0  0  0  0  0  0  0  0  0  0
   -0.7986   -4.9257    1.2188 C   0  0  0  0  0  0  0  0  0  0  0  0
   -0.5298   -4.2561    0.0235 C   0  0  0  0  0  0  0  0  0  0  0  0
   -0.5293   -4.9308   -1.1519 O   0  0  0  0  0  0  0  0  0  0  0  0
    0.0243   -0.7444    1.2795 C   0  0  0  0  0  0  0  0  0  0  0  0
    0.2736   -0.1684    2.3199 O   0  0  0  0  0  0  0  0  0  0  0  0
    1.0042    1.8801    0.0026 H   0  0  0  0  0  0  0  0  0  0  0  0
   -0.5455    1.8639   -0.8728 H   0  0  0  0  0  0  0  0  0  0  0  0
   -0.5286    1.8543    0.9071 H   0  0  0  0  0  0  0  0  0  0  0  0
   -0.0069   -0.1120   -2.0943 H   0  0  0  0  0  0  0  0  0  0  0  0
   -0.5378   -2.3531    3.3954 H   0  0  0  0  0  0  0  0  0  0  0  0
   -1.0089   -4.7725    3.3333 H   0  0  0  0  0  0  0  0  0  0  0  0
   -1.0062   -5.9855    1.2053 H   0  0  0  0  0  0  0  0  0  0  0  0
    0.3321   -5.2967   -1.3950 H   0  0  0  0  0  0  0  0  0  0  0  0
  1  2  1  0  0  0  0
  1 15  1  0  0  0  0
  1 16  1  0  0  0  0
  1 17  1  0  0  0  0
  2 13  1  0  0  0  0
  2  3  2  0  0  0  0
  3  4  1  0  0  0  0
  3 18  1  0  0  0  0
  4  5  2  0  0  0  0
  4  6  1  0  0  0  0
  6 11  2  0  0  0  0
  6  7  1  0  0  0  0
  7  8  2  0  0  0  0
  7 13  1  0  0  0  0
  8  9  1  0  0  0  0
  8 19  1  0  0  0  0
  9 10  2  0  0  0  0
  9 20  1  0  0  0  0
 10 11  1  0  0  0  0
 10 21  1  0  0  0  0
 11 12  1  0  0  0  0
 12 22  1  0  0  0  0
 13 14  2  0  0  0  0
M  END
>  <cansmi>
CC1=CC(=O)c2c(C1=O)cccc2O

>  <HBA2>
3

>  <HBD>
1

>  <logP>
1.7175

>  <TPSA>
54.37

>  <MW>
188.179

$$$$
ZINC00058185
 OpenBabel02121623173D

 44 45  0  0  0  0  0  0  0  0999 V2000
   -0.0178    1.4277   -0.0024 C   0  0  0  0  0  0  0  0  0  0  0  0
    0.0021   -0.0010   -0.0174 O   0  0  0  0  0  0  0  0  0  0  0  0
   -1.2009   -0.6354   -0.0095 C   0  0  0  0  0  0  0  0  0  0  0  0
   -2.3695    0.1017    0.0064 C   0  0  0  0  0  0  0  0  0  0  0  0
   -3.6071   -0.5521    0.0145 C   0  0  0  0  0  0  0  0  0  0  0  0
   -3.6559   -1.9509    0.0065 C   0  0  0  0  0  0  0  0  0  0  0  0
   -2.4830   -2.6812   -0.0093 C   0  0  0  0  0  0  0  0  0  0  0  0
   -1.2534   -2.0271   -0.0231 C   0  0  0  0  0  0  0  0  0  0  0  0
   -0.1020   -2.7487   -0.0443 O   0  0  0  0  0  0  0  0  0  0  0  0
    0.4630   -3.1063    1.2186 C   0  0  0  0  0  0  0  0  0  0  0  0
   -2.5294   -4.0404   -0.0167 O   0  0  0  0  0  0  0  0  0  0  0  0
   -3.8240   -4.6454   -0.0072 C   0  0  0  0  0  0  0  0  0  0  0  0
   -4.8522    0.2282    0.0319 C   0  0  0  0  0  0  0  0  0  0  0  0
   -6.0459   -0.4045    0.0397 C   0  0  0  0  0  0  0  0  0  0  0  0
   -7.2475    0.3486    0.0565 C   0  0  0  0  0  0  0  0  0  0  0  0
   -7.2046    1.5607    0.1555 O   0  0  0  0  0  0  0  0  0  0  0  0
   -8.4370   -0.2782   -0.0372 N   0  0  0  0  0  0  0  0  0  0  0  0
   -8.4436   -1.7357   -0.0291 C   0  0  0  0  0  0  0  0  0  0  0  0
   -9.8334   -2.2626    0.3304 C   0  0  0  0  0  0  0  0  0  0  0  0
  -10.8673   -1.5739   -0.5685 C   0  0  0  0  0  0  0  0  0  0  0  0
  -10.9241   -0.0912   -0.1924 C   0  0  0  0  0  0  0  0  0  0  0  0
   -9.5345    0.4741   -0.1262 C   0  0  0  0  0  0  0  0  0  0  0  0
   -9.4032    1.6789   -0.1599 O   0  0  0  0  0  0  0  0  0  0  0  0
    1.0046    1.8055   -0.0108 H   0  0  0  0  0  0  0  0  0  0  0  0
   -0.5473    1.7930   -0.8824 H   0  0  0  0  0  0  0  0  0  0  0  0
   -0.5260    1.7747    0.8973 H   0  0  0  0  0  0  0  0  0  0  0  0
   -2.3280    1.1809    0.0129 H   0  0  0  0  0  0  0  0  0  0  0  0
   -4.6090   -2.4587    0.0131 H   0  0  0  0  0  0  0  0  0  0  0  0
    0.6941   -2.2024    1.7822 H   0  0  0  0  0  0  0  0  0  0  0  0
   -0.2511   -3.7106    1.7780 H   0  0  0  0  0  0  0  0  0  0  0  0
    1.3768   -3.6786    1.0589 H   0  0  0  0  0  0  0  0  0  0  0  0
   -4.3795   -4.3286   -0.8899 H   0  0  0  0  0  0  0  0  0  0  0  0
   -3.7181   -5.7302   -0.0145 H   0  0  0  0  0  0  0  0  0  0  0  0
   -4.3618   -4.3389    0.8899 H   0  0  0  0  0  0  0  0  0  0  0  0
   -4.8131    1.3075    0.0384 H   0  0  0  0  0  0  0  0  0  0  0  0
   -6.0850   -1.4837    0.0332 H   0  0  0  0  0  0  0  0  0  0  0  0
   -8.1634   -2.1027   -1.0164 H   0  0  0  0  0  0  0  0  0  0  0  0
   -7.7213   -2.0951    0.7038 H   0  0  0  0  0  0  0  0  0  0  0  0
   -9.8689   -3.3401    0.1695 H   0  0  0  0  0  0  0  0  0  0  0  0
  -10.0503   -2.0392    1.3750 H   0  0  0  0  0  0  0  0  0  0  0  0
  -10.5721   -1.6765   -1.6128 H   0  0  0  0  0  0  0  0  0  0  0  0
  -11.8462   -2.0286   -0.4170 H   0  0  0  0  0  0  0  0  0  0  0  0
  -11.5025    0.4503   -0.9410 H   0  0  0  0  0  0  0  0  0  0  0  0
  -11.4023    0.0174    0.7810 H   0  0  0  0  0  0  0  0  0  0  0  0
  1  2  1  0  0  0  0
  1 24  1  0  0  0  0
  1 25  1  0  0  0  0
  1 26  1  0  0  0  0
  2  3  1  0  0  0  0
  3  8  2  0  0  0  0
  3  4  1  0  0  0  0
  4  5  2  0  0  0  0
  4 27  1  0  0  0  0
  5  6  1  0  0  0  0
  5 13  1  0  0  0  0
  6  7  2  0  0  0  0
  6 28  1  0  0  0  0
  7  8  1  0  0  0  0
  7 11  1  0  0  0  0
  8  9  1  0  0  0  0
  9 10  1  0  0  0  0
 10 29  1  0  0  0  0
 10 30  1  0  0  0  0
 10 31  1  0  0  0  0
 11 12  1  0  0  0  0
 12 32  1  0  0  0  0
 12 33  1  0  0  0  0
 12 34  1  0  0  0  0
 13 14  2  0  0  0  0
 13 35  1  0  0  0  0
 14 15  1  0  0  0  0
 14 36  1  0  0  0  0
 15 16  2  0  0  0  0
 15 17  1  0  0  0  0
 17 22  1  0  0  0  0
 17 18  1  0  0  0  0
 18 19  1  0  0  0  0
 18 37  1  0  0  0  0
 18 38  1  0  0  0  0
 19 20  1  0  0  0  0
 19 39  1  0  0  0  0
 19 40  1  0  0  0  0
 20 21  1  0  0  0  0
 20 41  1  0  0  0  0
 20 42  1  0  0  0  0
 21 22  1  0  0  0  0
 21 43  1  0  0  0  0
 21 44  1  0  0  0  0
 22 23  2  0  0  0  0
M  END
>  <cansmi>
COc1cc(/C=C/C(=O)N2CCCCC2=O)cc(c1OC)OC

>  <HBA2>
6

>  <HBD>
0

>  <logP>
2.2026

>  <TPSA>
65.07

>  <MW>
319.352

$$$$
ZINC00058172
 OpenBabel02121623173D

 20 20  0  0  0  0  0  0  0  0999 V2000
   -0.0169    1.3957    0.0097 C   0  0  0  0  0  0  0  0  0  0  0  0
    1.1668    2.1000    0.0022 C   0  0  0  0  0  0  0  0  0  0  0  0
    2.3804    1.4254   -0.0135 C   0  0  0  0  0  0  0  0  0  0  0  0
    2.4079    0.0305   -0.0212 C   0  0  0  0  0  0  0  0  0  0  0  0
    1.2269   -0.6836   -0.0138 C   0  0  0  0  0  0  0  0  0  0  0  0
    0.0021   -0.0041    0.0020 C   0  0  0  0  0  0  0  0  0  0  0  0
   -1.2582   -0.7578    0.0105 C   0  0  0  0  0  0  0  0  0  0  0  0
   -2.4405   -0.0992    0.0258 C   0  0  0  0  0  0  0  0  0  0  0  0
   -3.6536   -0.8247    0.0339 C   0  0  0  0  0  0  0  0  0  0  0  0
   -3.6348   -2.0498    0.0272 O   0  0  0  0  0  0  0  0  0  0  0  0
   -4.7239   -0.2284    0.0477 O   0  5  0  0  0  0  0  0  0  0  0  0
    3.5989   -0.6258   -0.0366 O   0  0  0  0  0  0  0  0  0  0  0  0
    3.5440    2.1254   -0.0217 O   0  0  0  0  0  0  0  0  0  0  0  0
   -0.9592    1.9231    0.0260 H   0  0  0  0  0  0  0  0  0  0  0  0
    1.1511    3.1799    0.0081 H   0  0  0  0  0  0  0  0  0  0  0  0
    1.2470   -1.7634   -0.0205 H   0  0  0  0  0  0  0  0  0  0  0  0
   -1.2417   -1.8376    0.0045 H   0  0  0  0  0  0  0  0  0  0  0  0
   -2.4570    0.9807    0.0317 H   0  0  0  0  0  0  0  0  0  0  0  0
    3.9522   -0.8203    0.8423 H   0  0  0  0  0  0  0  0  0  0  0  0
    3.8899    2.3237    0.8592 H   0  0  0  0  0  0  0  0  0  0  0  0
  1  6  2  0  0  0  0
  1  2  1  0  0  0  0
  1 14  1  0  0  0  0
  2  3  2  0  0  0  0
  2 15  1  0  0  0  0
  3  4  1  0  0  0  0
  3 13  1  0  0  0  0
  4  5  2  0  0  0  0
  4 12  1  0  0  0  0
  5  6  1  0  0  0  0
  5 16  1  0  0  0  0
  6  7  1  0  0  0  0
  7  8  2  0  0  0  0
  7 17  1  0  0  0  0
  8  9  1  0  0  0  0
  8 18  1  0  0  0  0
  9 10  2  0  0  0  0
  9 11  1  0  0  0  0
 12 19  1  0  0  0  0
 13 20  1  0  0  0  0
M  CHG  1  11  -1
M  END
>  <cansmi>
[O-]C(=O)/C=C/c1ccc(c(c1)O)O

>  <HBA2>
4

>  <HBD>
2

>  <logP>
-0.1391

>  <TPSA>
80.59

>  <MW>
179.149

$$$$
ZINC01531764
 OpenBabel02121623173D

 46 46  0  0  0  0  0  0  0  0999 V2000
   -0.0187    1.5258    0.0104 C   0  0  0  0  0  0  0  0  0  0  0  0
    0.0021   -0.0041    0.0020 C   0  0  0  0  0  0  0  0  0  0  0  0
    0.7182   -0.4975   -1.2568 C   0  0  0  0  0  0  0  0  0  0  0  0
    0.7390   -2.0273   -1.2652 C   0  0  0  0  0  0  0  0  0  0  0  0
    1.4551   -2.5207   -2.5240 C   0  0  0  0  0  0  0  0  0  0  0  0
    1.4758   -4.0506   -2.5324 C   0  0  0  0  0  0  0  0  0  0  0  0
    2.1920   -4.5440   -3.7912 C   0  0  0  0  0  0  0  0  0  0  0  0
    2.2127   -6.0738   -3.7996 C   0  0  0  0  0  0  0  0  0  0  0  0
    2.9289   -6.5673   -5.0584 C   0  0  0  0  0  0  0  0  0  0  0  0
    2.9496   -8.0971   -5.0668 C   0  0  0  0  0  0  0  0  0  0  0  0
    3.6658   -8.5905   -6.3257 C   0  0  0  0  0  0  0  0  0  0  0  0
    3.6862  -10.0973   -6.3339 C   0  0  0  0  0  0  0  0  0  0  0  0
    2.7347  -10.7816   -7.0037 C   0  0  0  0  0  0  0  0  0  0  0  0
    2.7551  -12.2675   -7.0123 C   0  0  0  0  0  0  0  0  0  0  0  0
    3.8086  -12.9902   -6.2934 C   0  0  0  0  0  0  0  0  0  0  0  0
    4.7600  -12.3059   -5.6237 C   0  0  0  0  0  0  0  0  0  0  0  0
    5.7324  -12.9728   -4.9607 O   0  5  0  0  0  0  0  0  0  0  0  0
    4.7428  -10.8199   -5.6197 C   0  0  0  0  0  0  0  0  0  0  0  0
    5.6021  -10.2040   -5.0210 O   0  0  0  0  0  0  0  0  0  0  0  0
    1.8984  -12.8834   -7.6148 O   0  0  0  0  0  0  0  0  0  0  0  0
    1.7623  -10.1147   -7.6667 O   0  0  0  0  0  0  0  0  0  0  0  0
    1.0039    1.9031    0.0027 H   0  0  0  0  0  0  0  0  0  0  0  0
   -0.5459    1.8868   -0.8726 H   0  0  0  0  0  0  0  0  0  0  0  0
   -0.5289    1.8773    0.9072 H   0  0  0  0  0  0  0  0  0  0  0  0
    0.5293   -0.3651    0.8851 H   0  0  0  0  0  0  0  0  0  0  0  0
   -1.0205   -0.3814    0.0098 H   0  0  0  0  0  0  0  0  0  0  0  0
    0.1910   -0.1364   -2.1398 H   0  0  0  0  0  0  0  0  0  0  0  0
    1.7408   -0.1202   -1.2645 H   0  0  0  0  0  0  0  0  0  0  0  0
    1.2661   -2.3884   -0.3821 H   0  0  0  0  0  0  0  0  0  0  0  0
   -0.2836   -2.4046   -1.2575 H   0  0  0  0  0  0  0  0  0  0  0  0
    0.9279   -2.1597   -3.4071 H   0  0  0  0  0  0  0  0  0  0  0  0
    2.4777   -2.1435   -2.5317 H   0  0  0  0  0  0  0  0  0  0  0  0
    2.0030   -4.4117   -1.6494 H   0  0  0  0  0  0  0  0  0  0  0  0
    0.4533   -4.4279   -2.5247 H   0  0  0  0  0  0  0  0  0  0  0  0
    1.6648   -4.1829   -4.6743 H   0  0  0  0  0  0  0  0  0  0  0  0
    3.2146   -4.1667   -3.7990 H   0  0  0  0  0  0  0  0  0  0  0  0
    2.7399   -6.4349   -2.9166 H   0  0  0  0  0  0  0  0  0  0  0  0
    1.1901   -6.4511   -3.7919 H   0  0  0  0  0  0  0  0  0  0  0  0
    2.4017   -6.2062   -5.9415 H   0  0  0  0  0  0  0  0  0  0  0  0
    3.9515   -6.1900   -5.0662 H   0  0  0  0  0  0  0  0  0  0  0  0
    3.4768   -8.4582   -4.1838 H   0  0  0  0  0  0  0  0  0  0  0  0
    1.9270   -8.4744   -5.0591 H   0  0  0  0  0  0  0  0  0  0  0  0
    3.1386   -8.2294   -7.2087 H   0  0  0  0  0  0  0  0  0  0  0  0
    4.6884   -8.2132   -6.3334 H   0  0  0  0  0  0  0  0  0  0  0  0
    3.8232  -14.0700   -6.2994 H   0  0  0  0  0  0  0  0  0  0  0  0
    1.1272  -10.6893   -8.1156 H   0  0  0  0  0  0  0  0  0  0  0  0
  1  2  1  0  0  0  0
  1 22  1  0  0  0  0
  1 23  1  0  0  0  0
  1 24  1  0  0  0  0
  2  3  1  0  0  0  0
  2 25  1  0  0  0  0
  2 26  1  0  0  0  0
  3  4  1  0  0  0  0
  3 27  1  0  0  0  0
  3 28  1  0  0  0  0
  4  5  1  0  0  0  0
  4 29  1  0  0  0  0
  4 30  1  0  0  0  0
  5  6  1  0  0  0  0
  5 31  1  0  0  0  0
  5 32  1  0  0  0  0
  6  7  1  0  0  0  0
  6 33  1  0  0  0  0
  6 34  1  0  0  0  0
  7  8  1  0  0  0  0
  7 35  1  0  0  0  0
  7 36  1  0  0  0  0
  8  9  1  0  0  0  0
  8 37  1  0  0  0  0
  8 38  1  0  0  0  0
  9 10  1  0  0  0  0
  9 39  1  0  0  0  0
  9 40  1  0  0  0  0
 10 11  1  0  0  0  0
 10 41  1  0  0  0  0
 10 42  1  0  0  0  0
 11 43  1  0  0  0  0
 11 44  1  0  0  0  0
 11 12  1  0  0  0  0
 12 18  1  0  0  0  0
 12 13  2  0  0  0  0
 13 21  1  0  0  0  0
 13 14  1  0  0  0  0
 14 20  2  0  0  0  0
 14 15  1  0  0  0  0
 15 16  2  0  0  0  0
 15 45  1  0  0  0  0
 16 17  1  0  0  0  0
 16 18  1  0  0  0  0
 18 19  2  0  0  0  0
 21 46  1  0  0  0  0
M  CHG  1  17  -1
M  END
>  <cansmi>
CCCCCCCCCCCC1=C(O)C(=O)C=C(C1=O)[O-]

>  <HBA2>
4

>  <HBD>
1

>  <logP>
4.1856

>  <TPSA>
77.43

>  <MW>
293.378

$$$$
ZINC00056981
 OpenBabel02121623173D

 30 31  0  0  1  0  0  0  0  0999 V2000
   -0.0178    1.4648    0.0101 C   0  0  0  0  0  0  0  0  0  0  0  0
    0.0021   -0.0041    0.0020 N   0  3  0  0  0  0  0  0  0  0  0  0
    0.6897   -0.4778   -1.2066 C   0  0  1  0  0  0  0  0  0  0  0  0
    1.6817   -0.0294   -1.2596 H   0  0  0  0  0  0  0  0  0  0  0  0
    0.8207   -2.0013   -1.1548 C   0  0  0  0  0  0  0  0  0  0  0  0
    1.7177   -2.3896   -0.0077 C   0  0  0  0  0  0  0  0  0  0  0  0
    3.0369   -2.6291   -0.0714 C   0  0  0  0  0  0  0  0  0  0  0  0
    3.5125   -2.9548    1.1696 N   0  0  0  0  0  0  0  0  0  0  0  0
    4.4361   -3.1696    1.3737 H   0  0  0  0  0  0  0  0  0  0  0  0
    2.4846   -2.9323    2.0855 C   0  0  0  0  0  0  0  0  0  0  0  0
    1.3164   -2.5711    1.3894 C   0  0  0  0  0  0  0  0  0  0  0  0
    0.1041   -2.4620    2.0728 C   0  0  0  0  0  0  0  0  0  0  0  0
    0.0589   -2.7035    3.4171 C   0  0  0  0  0  0  0  0  0  0  0  0
    1.2092   -3.0561    4.1090 C   0  0  0  0  0  0  0  0  0  0  0  0
    2.4145   -3.1786    3.4526 C   0  0  0  0  0  0  0  0  0  0  0  0
   -0.1057   -0.0832   -2.4243 C   0  0  0  0  0  0  0  0  0  0  0  0
   -1.1486    0.5354   -2.2971 O   0  0  0  0  0  0  0  0  0  0  0  0
    0.2938   -0.3825   -3.5367 O   0  5  0  0  0  0  0  0  0  0  0  0
    1.0047    1.8421    0.0024 H   0  0  0  0  0  0  0  0  0  0  0  0
   -0.5450    1.8259   -0.8730 H   0  0  0  0  0  0  0  0  0  0  0  0
   -0.5280    1.8163    0.9069 H   0  0  0  0  0  0  0  0  0  0  0  0
    0.4901   -0.3383    0.8195 H   0  0  0  0  0  0  0  0  0  0  0  0
   -0.1642   -2.4461   -1.0125 H   0  0  0  0  0  0  0  0  0  0  0  0
    1.2502   -2.3611   -2.0897 H   0  0  0  0  0  0  0  0  0  0  0  0
    3.6345   -2.5733   -0.9693 H   0  0  0  0  0  0  0  0  0  0  0  0
   -0.7949   -2.1873    1.5410 H   0  0  0  0  0  0  0  0  0  0  0  0
   -0.8793   -2.6189    3.9453 H   0  0  0  0  0  0  0  0  0  0  0  0
    1.1577   -3.2432    5.1715 H   0  0  0  0  0  0  0  0  0  0  0  0
    3.3043   -3.4523    4.0001 H   0  0  0  0  0  0  0  0  0  0  0  0
   -0.9445   -0.3533    0.0092 H   0  0  0  0  0  0  0  0  0  0  0  0
  1  2  1  0  0  0  0
  1 19  1  0  0  0  0
  1 20  1  0  0  0  0
  1 21  1  0  0  0  0
  2  3  1  0  0  0  0
  2 22  1  0  0  0  0
  2 30  1  0  0  0  0
  3  4  1  6  0  0  0
  3  5  1  0  0  0  0
  3 16  1  0  0  0  0
  5  6  1  0  0  0  0
  5 23  1  0  0  0  0
  5 24  1  0  0  0  0
  6 11  1  0  0  0  0
  6  7  2  0  0  0  0
  7  8  1  0  0  0  0
  7 25  1  0  0  0  0
  8  9  1  0  0  0  0
  8 10  1  0  0  0  0
 10 15  2  0  0  0  0
 10 11  1  0  0  0  0
 11 12  2  0  0  0  0
 12 13  1  0  0  0  0
 12 26  1  0  0  0  0
 13 14  2  0  0  0  0
 13 27  1  0  0  0  0
 14 15  1  0  0  0  0
 14 28  1  0  0  0  0
 15 29  1  0  0  0  0
 16 17  2  0  0  0  0
 16 18  1  0  0  0  0
M  CHG  2   2   1  18  -1
M  END
>  <cansmi>
C[NH2+][C@H](C(=O)[O-])Cc1c[nH]c2c1cccc2

>  <HBA2>
2

>  <HBD>
2

>  <logP>
-0.9779

>  <TPSA>
72.53

>  <MW>
218.252

$$$$
ZINC03977747
 OpenBabel02121623173D

 68 72  0  0  1  0  0  0  0  0999 V2000
   -0.0186    1.5169    0.0104 C   0  0  0  0  0  0  0  0  0  0  0  0
    0.0021   -0.0041    0.0020 C   0  0  1  0  0  0  0  0  0  0  0  0
   -1.0204   -0.3934    0.0223 H   0  0  0  0  0  0  0  0  0  0  0  0
    0.7460   -0.5715   -1.2231 C   0  0  1  0  0  0  0  0  0  0  0  0
    0.1709   -0.5381   -2.1396 H   0  0  0  0  0  0  0  0  0  0  0  0
    2.1497    0.0637   -1.3373 C   0  0  0  0  0  0  0  0  0  0  0  0
    3.1810   -1.0937   -1.1833 C   0  0  0  0  0  0  0  0  0  0  0  0
    2.3397   -2.3336   -1.5195 C   0  0  2  0  0  0  0  0  0  0  0  0
    2.1362   -2.3388   -2.6013 H   0  0  0  0  0  0  0  0  0  0  0  0
    1.0355   -2.0251   -0.7555 C   0  0  2  0  0  0  0  0  0  0  0  0
   -0.0297   -3.0359   -1.0794 C   0  0  0  0  0  0  0  0  0  0  0  0
    0.5112   -4.4571   -0.8423 C   0  0  0  0  0  0  0  0  0  0  0  0
    1.9041   -4.4234   -0.2409 C   0  0  2  0  0  0  0  0  0  0  0  0
    1.8299   -3.8728    0.6973 H   0  0  0  0  0  0  0  0  0  0  0  0
    2.8966   -3.6664   -1.1094 C   0  0  2  0  0  0  0  0  0  0  0  0
    3.0821   -4.2618   -2.0169 H   0  0  0  0  0  0  0  0  0  0  0  0
    4.2182   -3.5564   -0.3445 C   0  0  0  0  0  0  0  0  0  0  0  0
    4.7240   -4.9686   -0.1687 C   0  0  0  0  0  0  0  0  0  0  0  0
    3.8925   -5.9597    0.0636 C   0  0  0  0  0  0  0  0  0  0  0  0
    2.4123   -5.7842    0.1813 C   0  0  2  0  0  0  0  0  0  0  0  0
    1.6813   -6.8884   -0.5783 C   0  0  0  0  0  0  0  0  0  0  0  0
    2.1955   -8.2635   -0.1609 C   0  0  0  0  0  0  0  0  0  0  0  0
    3.6784   -8.4020   -0.4755 C   0  0  1  0  0  0  0  0  0  0  0  0
    3.8239   -8.3279   -1.5536 H   0  0  0  0  0  0  0  0  0  0  0  0
    4.5067   -7.3317    0.2115 C   0  0  0  0  0  0  0  0  0  0  0  0
    4.1407   -9.7229   -0.0239 N   0  3  0  0  0  0  0  0  0  0  0  0
    3.3852  -10.7713   -0.7226 C   0  0  0  0  0  0  0  0  0  0  0  0
    5.5716   -9.8692   -0.3221 C   0  0  0  0  0  0  0  0  0  0  0  0
    2.0587   -5.9259    1.6645 C   0  0  0  0  0  0  0  0  0  0  0  0
    1.2707   -1.8706    0.7500 C   0  0  0  0  0  0  0  0  0  0  0  0
    0.7503   -0.5456    1.1540 N   0  3  2  0  0  0  0  0  0  0  0  0
   -0.1502   -0.7011    2.3008 C   0  0  0  0  0  0  0  0  0  0  0  0
    1.0040    1.8942    0.0026 H   0  0  0  0  0  0  0  0  0  0  0  0
   -0.5457    1.8780   -0.8727 H   0  0  0  0  0  0  0  0  0  0  0  0
   -0.5287    1.8685    0.9072 H   0  0  0  0  0  0  0  0  0  0  0  0
    2.2717    0.5308   -2.3159 H   0  0  0  0  0  0  0  0  0  0  0  0
    2.3305    0.7945   -0.5529 H   0  0  0  0  0  0  0  0  0  0  0  0
    3.9934   -0.9747   -1.8988 H   0  0  0  0  0  0  0  0  0  0  0  0
    3.5597   -1.1363   -0.1663 H   0  0  0  0  0  0  0  0  0  0  0  0
   -0.9070   -2.8649   -0.4459 H   0  0  0  0  0  0  0  0  0  0  0  0
   -0.3352   -2.9276   -2.1261 H   0  0  0  0  0  0  0  0  0  0  0  0
   -0.1670   -4.9932   -0.1710 H   0  0  0  0  0  0  0  0  0  0  0  0
    0.5408   -4.9937   -1.7974 H   0  0  0  0  0  0  0  0  0  0  0  0
    4.9357   -2.9745   -0.9224 H   0  0  0  0  0  0  0  0  0  0  0  0
    4.0532   -3.0949    0.6272 H   0  0  0  0  0  0  0  0  0  0  0  0
    5.7841   -5.1655   -0.2355 H   0  0  0  0  0  0  0  0  0  0  0  0
    0.6094   -6.8286   -0.3720 H   0  0  0  0  0  0  0  0  0  0  0  0
    1.8382   -6.7558   -1.6527 H   0  0  0  0  0  0  0  0  0  0  0  0
    2.0232   -8.4379    0.8983 H   0  0  0  0  0  0  0  0  0  0  0  0
    1.6459   -9.0298   -0.7231 H   0  0  0  0  0  0  0  0  0  0  0  0
    5.5033   -7.3208   -0.2310 H   0  0  0  0  0  0  0  0  0  0  0  0
    4.5939   -7.5719    1.2699 H   0  0  0  0  0  0  0  0  0  0  0  0
    3.5438  -10.6786   -1.7970 H   0  0  0  0  0  0  0  0  0  0  0  0
    3.7279  -11.7504   -0.3879 H   0  0  0  0  0  0  0  0  0  0  0  0
    2.3235  -10.6627   -0.5014 H   0  0  0  0  0  0  0  0  0  0  0  0
    6.1322   -9.0912    0.1964 H   0  0  0  0  0  0  0  0  0  0  0  0
    5.9143  -10.8482    0.0127 H   0  0  0  0  0  0  0  0  0  0  0  0
    5.7302   -9.7765   -1.3965 H   0  0  0  0  0  0  0  0  0  0  0  0
    0.9783   -5.8533    1.7890 H   0  0  0  0  0  0  0  0  0  0  0  0
    2.4021   -6.8941    2.0290 H   0  0  0  0  0  0  0  0  0  0  0  0
    2.5440   -5.1314    2.2312 H   0  0  0  0  0  0  0  0  0  0  0  0
    0.7148   -2.6381    1.2940 H   0  0  0  0  0  0  0  0  0  0  0  0
    2.3279   -1.9372    0.9867 H   0  0  0  0  0  0  0  0  0  0  0  0
   -0.9562   -1.3868    2.0394 H   0  0  0  0  0  0  0  0  0  0  0  0
    0.4065   -1.1009    3.1483 H   0  0  0  0  0  0  0  0  0  0  0  0
   -0.5704    0.2688    2.5670 H   0  0  0  0  0  0  0  0  0  0  0  0
    1.5139    0.0631    1.3856 H   0  0  0  0  0  0  0  0  0  0  0  0
    3.9938   -9.8086    0.9706 H   0  0  0  0  0  0  0  0  0  0  0  0
  1  2  1  0  0  0  0
  1 33  1  0  0  0  0
  1 34  1  0  0  0  0
  1 35  1  0  0  0  0
  2  3  1  1  0  0  0
  2 31  1  0  0  0  0
  2  4  1  0  0  0  0
  4  5  1  6  0  0  0
  4 10  1  0  0  0  0
  4  6  1  0  0  0  0
  6  7  1  0  0  0  0
  6 36  1  0  0  0  0
  6 37  1  0  0  0  0
  7  8  1  0  0  0  0
  7 38  1  0  0  0  0
  7 39  1  0  0  0  0
  8  9  1  6  0  0  0
  8 15  1  0  0  0  0
  8 10  1  0  0  0  0
 10 11  1  6  0  0  0
 10 30  1  0  0  0  0
 11 12  1  0  0  0  0
 11 40  1  0  0  0  0
 11 41  1  0  0  0  0
 12 13  1  0  0  0  0
 12 42  1  0  0  0  0
 12 43  1  0  0  0  0
 13 14  1  1  0  0  0
 13 20  1  0  0  0  0
 13 15  1  0  0  0  0
 15 16  1  6  0  0  0
 15 17  1  0  0  0  0
 17 18  1  0  0  0  0
 17 44  1  0  0  0  0
 17 45  1  0  0  0  0
 18 19  2  0  0  0  0
 18 46  1  0  0  0  0
 19 25  1  0  0  0  0
 19 20  1  0  0  0  0
 20 21  1  0  0  0  0
 20 29  1  1  0  0  0
 21 22  1  0  0  0  0
 21 47  1  0  0  0  0
 21 48  1  0  0  0  0
 22 23  1  0  0  0  0
 22 49  1  0  0  0  0
 22 50  1  0  0  0  0
 23 24  1  6  0  0  0
 23 25  1  0  0  0  0
 23 26  1  0  0  0  0
 25 51  1  0  0  0  0
 25 52  1  0  0  0  0
 26 27  1  0  0  0  0
 26 28  1  0  0  0  0
 26 68  1  0  0  0  0
 27 53  1  0  0  0  0
 27 54  1  0  0  0  0
 27 55  1  0  0  0  0
 28 56  1  0  0  0  0
 28 57  1  0  0  0  0
 28 58  1  0  0  0  0
 29 59  1  0  0  0  0
 29 60  1  0  0  0  0
 29 61  1  0  0  0  0
 30 31  1  0  0  0  0
 30 62  1  0  0  0  0
 30 63  1  0  0  0  0
 31 32  1  0  0  0  0
 31 67  1  1  0  0  0
 32 64  1  0  0  0  0
 32 65  1  0  0  0  0
 32 66  1  0  0  0  0
M  CHG  2  26   1  31   1
M  END
>  <cansmi>
C[NH+]([C@H]1CC[C@]2(C(=CC[C@H]3[C@H]2CC[C@]24[C@H]3CC[C@@H]4[C@@H]([N@H+](C2)C)C)C1)C)C

>  <HBA2>
0

>  <HBD>
2

>  <logP>
3.5446

>  <TPSA>
8.88

>  <MW>
358.604

$$$$
ZINC03977749
 OpenBabel02121623173D

 68 72  0  0  1  0  0  0  0  0999 V2000
   -0.0187    1.5258    0.0104 C   0  0  0  0  0  0  0  0  0  0  0  0
    0.0021   -0.0041    0.0020 C   0  0  1  0  0  0  0  0  0  0  0  0
   -1.0088   -0.3969    0.1111 H   0  0  0  0  0  0  0  0  0  0  0  0
    0.6425   -0.5250   -1.3016 C   0  0  1  0  0  0  0  0  0  0  0  0
   -0.1087   -0.7859   -2.0470 H   0  0  0  0  0  0  0  0  0  0  0  0
    1.6363    0.5281   -1.8325 C   0  0  0  0  0  0  0  0  0  0  0  0
    2.8729   -0.2996   -2.2672 C   0  0  0  0  0  0  0  0  0  0  0  0
    2.9518   -1.3890   -1.1725 C   0  0  1  0  0  0  0  0  0  0  0  0
    3.4367   -0.9884   -0.2823 H   0  0  0  0  0  0  0  0  0  0  0  0
    1.4775   -1.7544   -0.8658 C   0  0  2  0  0  0  0  0  0  0  0  0
    1.0163   -2.9901   -1.6131 C   0  0  0  0  0  0  0  0  0  0  0  0
    1.8038   -4.2213   -1.1965 C   0  0  0  0  0  0  0  0  0  0  0  0
    3.2750   -3.8922   -0.9355 C   0  0  2  0  0  0  0  0  0  0  0  0
    3.4081   -3.6999    0.1292 H   0  0  0  0  0  0  0  0  0  0  0  0
    3.7331   -2.5926   -1.6952 C   0  0  2  0  0  0  0  0  0  0  0  0
    3.5250   -2.7332   -2.7559 H   0  0  0  0  0  0  0  0  0  0  0  0
    5.2261   -2.3063   -1.4762 C   0  0  0  0  0  0  0  0  0  0  0  0
    6.0273   -3.4942   -1.9209 C   0  0  0  0  0  0  0  0  0  0  0  0
    5.5609   -4.7062   -1.8385 C   0  0  0  0  0  0  0  0  0  0  0  0
    4.1052   -5.1042   -1.3212 C   0  0  2  0  0  0  0  0  0  0  0  0
    3.3381   -5.9754   -2.3195 C   0  0  0  0  0  0  0  0  0  0  0  0
    4.1735   -7.2125   -2.6566 C   0  0  0  0  0  0  0  0  0  0  0  0
    5.4773   -6.7863   -3.3336 C   0  0  1  0  0  0  0  0  0  0  0  0
    5.2498   -6.1869   -4.2151 H   0  0  0  0  0  0  0  0  0  0  0  0
    6.4407   -5.8491   -2.3183 C   0  0  0  0  0  0  0  0  0  0  0  0
    6.2333   -7.9801   -3.7352 N   0  3  0  0  0  0  0  0  0  0  0  0
    5.4308   -8.7749   -4.6744 C   0  0  0  0  0  0  0  0  0  0  0  0
    7.4855   -7.5710   -4.3854 C   0  0  0  0  0  0  0  0  0  0  0  0
    4.2941   -5.9520   -0.0617 C   0  0  0  0  0  0  0  0  0  0  0  0
    1.2483   -1.8858    0.6474 C   0  0  0  0  0  0  0  0  0  0  0  0
    0.8752   -0.5150    1.0900 N   0  3  2  0  0  0  0  0  0  0  0  0
    0.1373   -0.5658    2.3592 C   0  0  0  0  0  0  0  0  0  0  0  0
    1.0029    1.9027    0.0592 H   0  0  0  0  0  0  0  0  0  0  0  0
   -0.4964    1.8877   -0.9000 H   0  0  0  0  0  0  0  0  0  0  0  0
   -0.5773    1.8768    0.8781 H   0  0  0  0  0  0  0  0  0  0  0  0
    1.2120    1.0567   -2.6861 H   0  0  0  0  0  0  0  0  0  0  0  0
    1.9056    1.2302   -1.0434 H   0  0  0  0  0  0  0  0  0  0  0  0
    2.7131   -0.7476   -3.2479 H   0  0  0  0  0  0  0  0  0  0  0  0
    3.7716    0.3173   -2.2644 H   0  0  0  0  0  0  0  0  0  0  0  0
   -0.0409   -3.1570   -1.4068 H   0  0  0  0  0  0  0  0  0  0  0  0
    1.1478   -2.8287   -2.6831 H   0  0  0  0  0  0  0  0  0  0  0  0
    1.3651   -4.6327   -0.2874 H   0  0  0  0  0  0  0  0  0  0  0  0
    1.7417   -4.9675   -1.9885 H   0  0  0  0  0  0  0  0  0  0  0  0
    5.5182   -1.4318   -2.0576 H   0  0  0  0  0  0  0  0  0  0  0  0
    5.4094   -2.1189   -0.4182 H   0  0  0  0  0  0  0  0  0  0  0  0
    7.0184   -3.3391   -2.3208 H   0  0  0  0  0  0  0  0  0  0  0  0
    2.3905   -6.2852   -1.8790 H   0  0  0  0  0  0  0  0  0  0  0  0
    3.1483   -5.4056   -3.2291 H   0  0  0  0  0  0  0  0  0  0  0  0
    4.4019   -7.7565   -1.7400 H   0  0  0  0  0  0  0  0  0  0  0  0
    3.6097   -7.8583   -3.3297 H   0  0  0  0  0  0  0  0  0  0  0  0
    7.3197   -5.4490   -2.8236 H   0  0  0  0  0  0  0  0  0  0  0  0
    6.7498   -6.4568   -1.4679 H   0  0  0  0  0  0  0  0  0  0  0  0
    5.2035   -8.1753   -5.5558 H   0  0  0  0  0  0  0  0  0  0  0  0
    5.9918   -9.6607   -4.9724 H   0  0  0  0  0  0  0  0  0  0  0  0
    4.5018   -9.0785   -4.1920 H   0  0  0  0  0  0  0  0  0  0  0  0
    8.0809   -6.9812   -3.6885 H   0  0  0  0  0  0  0  0  0  0  0  0
    8.0464   -8.4568   -4.6834 H   0  0  0  0  0  0  0  0  0  0  0  0
    7.2581   -6.9714   -5.2668 H   0  0  0  0  0  0  0  0  0  0  0  0
    3.3202   -6.2623    0.3169 H   0  0  0  0  0  0  0  0  0  0  0  0
    4.8879   -6.8337   -0.3029 H   0  0  0  0  0  0  0  0  0  0  0  0
    4.8089   -5.3641    0.6982 H   0  0  0  0  0  0  0  0  0  0  0  0
    0.4358   -2.5835    0.8499 H   0  0  0  0  0  0  0  0  0  0  0  0
    2.1627   -2.2107    1.1438 H   0  0  0  0  0  0  0  0  0  0  0  0
   -0.7219   -1.2281    2.2537 H   0  0  0  0  0  0  0  0  0  0  0  0
    0.7919   -0.9423    3.1452 H   0  0  0  0  0  0  0  0  0  0  0  0
   -0.2056    0.4353    2.6205 H   0  0  0  0  0  0  0  0  0  0  0  0
    1.6983    0.0614    1.1816 H   0  0  0  0  0  0  0  0  0  0  0  0
    6.4438   -8.5352   -2.9193 H   0  0  0  0  0  0  0  0  0  0  0  0
  1  2  1  0  0  0  0
  1 33  1  0  0  0  0
  1 34  1  0  0  0  0
  1 35  1  0  0  0  0
  2  3  1  1  0  0  0
  2 31  1  0  0  0  0
  2  4  1  0  0  0  0
  4  5  1  6  0  0  0
  4 10  1  0  0  0  0
  4  6  1  0  0  0  0
  6  7  1  0  0  0  0
  6 36  1  0  0  0  0
  6 37  1  0  0  0  0
  7  8  1  0  0  0  0
  7 38  1  0  0  0  0
  7 39  1  0  0  0  0
  8  9  1  1  0  0  0
  8 15  1  0  0  0  0
  8 10  1  0  0  0  0
 10 11  1  6  0  0  0
 10 30  1  0  0  0  0
 11 12  1  0  0  0  0
 11 40  1  0  0  0  0
 11 41  1  0  0  0  0
 12 13  1  0  0  0  0
 12 42  1  0  0  0  0
 12 43  1  0  0  0  0
 13 14  1  1  0  0  0
 13 20  1  0  0  0  0
 13 15  1  0  0  0  0
 15 16  1  6  0  0  0
 15 17  1  0  0  0  0
 17 18  1  0  0  0  0
 17 44  1  0  0  0  0
 17 45  1  0  0  0  0
 18 19  2  0  0  0  0
 18 46  1  0  0  0  0
 19 25  1  0  0  0  0
 19 20  1  0  0  0  0
 20 21  1  0  0  0  0
 20 29  1  1  0  0  0
 21 22  1  0  0  0  0
 21 47  1  0  0  0  0
 21 48  1  0  0  0  0
 22 23  1  0  0  0  0
 22 49  1  0  0  0  0
 22 50  1  0  0  0  0
 23 24  1  6  0  0  0
 23 25  1  0  0  0  0
 23 26  1  0  0  0  0
 25 51  1  0  0  0  0
 25 52  1  0  0  0  0
 26 27  1  0  0  0  0
 26 28  1  0  0  0  0
 26 68  1  0  0  0  0
 27 53  1  0  0  0  0
 27 54  1  0  0  0  0
 27 55  1  0  0  0  0
 28 56  1  0  0  0  0
 28 57  1  0  0  0  0
 28 58  1  0  0  0  0
 29 59  1  0  0  0  0
 29 60  1  0  0  0  0
 29 61  1  0  0  0  0
 30 31  1  0  0  0  0
 30 62  1  0  0  0  0
 30 63  1  0  0  0  0
 31 32  1  0  0  0  0
 31 67  1  1  0  0  0
 32 64  1  0  0  0  0
 32 65  1  0  0  0  0
 32 66  1  0  0  0  0
M  CHG  2  26   1  31   1
M  END
>  <cansmi>
C[NH+]([C@H]1CC[C@]2(C(=CC[C@H]3[C@H]2CC[C@]24[C@@H]3CC[C@@H]4[C@@H]([N@H+](C2)C)C)C1)C)C

>  <HBA2>
0

>  <HBD>
2

>  <logP>
3.5446

>  <TPSA>
8.88

>  <MW>
358.604

$$$$
ZINC28115899
 OpenBabel02121623173D

 88 94  0  0  1  0  0  0  0  0999 V2000
    1.1516    0.5461    2.3483 C   0  0  0  0  0  0  0  0  0  0  0  0
   -0.3477    0.6562    2.3645 N   0  0  0  0  0  0  0  0  0  0  0  0
   -0.6840    1.3253    3.6610 C   0  0  0  0  0  0  0  0  0  0  0  0
    0.2544    2.4931    3.9308 C   0  0  0  0  0  0  0  0  0  0  0  0
    0.2281    3.4224    2.7413 C   0  0  0  0  0  0  0  0  0  0  0  0
    0.7115    4.7109    2.8794 C   0  0  0  0  0  0  0  0  0  0  0  0
    0.5359    5.6377    1.8659 C   0  0  0  0  0  0  0  0  0  0  0  0
   -0.2550    5.2977    0.7739 C   0  0  0  0  0  0  0  0  0  0  0  0
   -0.6171    3.9703    0.5906 C   0  0  0  0  0  0  0  0  0  0  0  0
   -0.3396    3.0086    1.5584 C   0  0  0  0  0  0  0  0  0  0  0  0
   -0.7205    1.5899    1.2626 C   0  0  1  0  0  0  0  0  0  0  0  0
   -1.8159    1.5882    1.1620 H   0  0  0  0  0  0  0  0  0  0  0  0
   -0.0180    1.1072   -0.0013 C   0  0  0  0  0  0  0  0  0  0  0  0
   -0.6836    1.5796   -1.2645 C   0  0  0  0  0  0  0  0  0  0  0  0
    0.1262    1.8029   -2.3687 C   0  0  0  0  0  0  0  0  0  0  0  0
   -0.4186    2.2376   -3.5566 C   0  0  0  0  0  0  0  0  0  0  0  0
   -1.7885    2.4400   -3.6505 C   0  0  0  0  0  0  0  0  0  0  0  0
   -2.5976    2.2221   -2.5459 C   0  0  0  0  0  0  0  0  0  0  0  0
   -2.0414    1.7888   -1.3539 C   0  0  0  0  0  0  0  0  0  0  0  0
   -2.3237    2.8357   -4.8348 O   0  0  0  0  0  0  0  0  0  0  0  0
   -2.5776    4.1566   -5.0156 C   0  0  0  0  0  0  0  0  0  0  0  0
   -2.5333    5.0319   -3.9403 C   0  0  0  0  0  0  0  0  0  0  0  0
   -2.8183    6.3725   -4.1309 C   0  0  0  0  0  0  0  0  0  0  0  0
   -3.1380    6.8392   -5.3952 C   0  0  0  0  0  0  0  0  0  0  0  0
   -3.1649    5.9754   -6.4742 C   0  0  0  0  0  0  0  0  0  0  0  0
   -2.8874    4.6326   -6.2886 C   0  0  0  0  0  0  0  0  0  0  0  0
   -2.9075    3.7705   -7.3392 O   0  0  0  0  0  0  0  0  0  0  0  0
   -3.2316    4.3158   -8.6197 C   0  0  0  0  0  0  0  0  0  0  0  0
   -2.8132    7.3164   -2.9631 C   0  0  0  0  0  0  0  0  0  0  0  0
   -1.4289    7.6326   -2.4256 C   0  0  2  0  0  0  0  0  0  0  0  0
   -0.7951    6.7385   -2.5200 H   0  0  0  0  0  0  0  0  0  0  0  0
   -1.6340    8.1346   -1.0113 C   0  0  0  0  0  0  0  0  0  0  0  0
   -2.1176    9.4203   -0.8588 C   0  0  0  0  0  0  0  0  0  0  0  0
   -2.3705    9.8828    0.4246 C   0  0  0  0  0  0  0  0  0  0  0  0
   -2.1457    9.0640    1.5167 C   0  0  0  0  0  0  0  0  0  0  0  0
   -1.6375    7.7746    1.3504 C   0  0  0  0  0  0  0  0  0  0  0  0
   -1.3102    7.3324    0.0718 C   0  0  0  0  0  0  0  0  0  0  0  0
   -0.6198    6.1966   -0.1596 O   0  0  0  0  0  0  0  0  0  0  0  0
   -1.5357    6.9709    2.4435 O   0  0  0  0  0  0  0  0  0  0  0  0
   -2.7206    6.2895    2.8604 C   0  0  0  0  0  0  0  0  0  0  0  0
   -2.4361    9.5152    2.7668 O   0  0  0  0  0  0  0  0  0  0  0  0
   -2.9533   10.8430    2.8734 C   0  0  0  0  0  0  0  0  0  0  0  0
   -2.3795   10.3115   -2.0353 C   0  0  0  0  0  0  0  0  0  0  0  0
   -1.8495    9.7929   -3.3558 C   0  0  0  0  0  0  0  0  0  0  0  0
   -0.7759    8.7678   -3.1630 N   0  0  0  0  0  0  0  0  0  0  0  0
   -0.4846    8.2517   -4.5462 C   0  0  0  0  0  0  0  0  0  0  0  0
    1.1052    6.8664    1.9583 O   0  0  0  0  0  0  0  0  0  0  0  0
    1.9690    7.0989    3.0726 C   0  0  0  0  0  0  0  0  0  0  0  0
    1.4778   -0.1357    3.1475 H   0  0  0  0  0  0  0  0  0  0  0  0
    1.5940    1.5400    2.5109 H   0  0  0  0  0  0  0  0  0  0  0  0
    1.4799    0.1535    1.3746 H   0  0  0  0  0  0  0  0  0  0  0  0
   -1.7161    1.7037    3.6214 H   0  0  0  0  0  0  0  0  0  0  0  0
   -0.5906    0.6002    4.4829 H   0  0  0  0  0  0  0  0  0  0  0  0
   -0.0783    3.0303    4.8312 H   0  0  0  0  0  0  0  0  0  0  0  0
    1.2755    2.1147    4.0859 H   0  0  0  0  0  0  0  0  0  0  0  0
    1.2534    4.9895    3.7682 H   0  0  0  0  0  0  0  0  0  0  0  0
   -1.1313    3.6918   -0.3148 H   0  0  0  0  0  0  0  0  0  0  0  0
    1.0168    1.4802   -0.0109 H   0  0  0  0  0  0  0  0  0  0  0  0
   -0.0114    0.0074   -0.0199 H   0  0  0  0  0  0  0  0  0  0  0  0
    1.1905    1.6363   -2.2944 H   0  0  0  0  0  0  0  0  0  0  0  0
    0.2180    2.4136   -4.4103 H   0  0  0  0  0  0  0  0  0  0  0  0
   -3.6608    2.3948   -2.6140 H   0  0  0  0  0  0  0  0  0  0  0  0
   -2.6844    1.6132   -0.5033 H   0  0  0  0  0  0  0  0  0  0  0  0
   -2.2786    4.6724   -2.9534 H   0  0  0  0  0  0  0  0  0  0  0  0
   -3.3684    7.8864   -5.5391 H   0  0  0  0  0  0  0  0  0  0  0  0
   -3.3952    6.3539   -7.4616 H   0  0  0  0  0  0  0  0  0  0  0  0
   -3.2121    3.5158   -9.3745 H   0  0  0  0  0  0  0  0  0  0  0  0
   -2.4958    5.0890   -8.8858 H   0  0  0  0  0  0  0  0  0  0  0  0
   -4.2363    4.7623   -8.5844 H   0  0  0  0  0  0  0  0  0  0  0  0
   -3.2697    8.2716   -3.2617 H   0  0  0  0  0  0  0  0  0  0  0  0
   -3.3890    6.8780   -2.1347 H   0  0  0  0  0  0  0  0  0  0  0  0
   -2.7390   10.8858    0.5753 H   0  0  0  0  0  0  0  0  0  0  0  0
   -2.4993    5.6791    3.7483 H   0  0  0  0  0  0  0  0  0  0  0  0
   -3.0748    5.6389    2.0472 H   0  0  0  0  0  0  0  0  0  0  0  0
   -3.4997    7.0260    3.1066 H   0  0  0  0  0  0  0  0  0  0  0  0
   -3.1432   11.0787    3.9309 H   0  0  0  0  0  0  0  0  0  0  0  0
   -3.8932   10.9170    2.3067 H   0  0  0  0  0  0  0  0  0  0  0  0
   -2.2216   11.5554    2.4646 H   0  0  0  0  0  0  0  0  0  0  0  0
   -3.4642   10.4451   -2.1598 H   0  0  0  0  0  0  0  0  0  0  0  0
   -1.9065   11.2902   -1.8664 H   0  0  0  0  0  0  0  0  0  0  0  0
   -2.6698    9.3296   -3.9236 H   0  0  0  0  0  0  0  0  0  0  0  0
   -1.4283   10.6277   -3.9352 H   0  0  0  0  0  0  0  0  0  0  0  0
   -0.0025    9.0431   -5.1388 H   0  0  0  0  0  0  0  0  0  0  0  0
   -1.4252    7.9518   -5.0313 H   0  0  0  0  0  0  0  0  0  0  0  0
    0.1868    7.3829   -4.4795 H   0  0  0  0  0  0  0  0  0  0  0  0
    2.3594    8.1262    3.0258 H   0  0  0  0  0  0  0  0  0  0  0  0
    2.8066    6.3865    3.0421 H   0  0  0  0  0  0  0  0  0  0  0  0
    1.4059    6.9629    4.0077 H   0  0  0  0  0  0  0  0  0  0  0  0
  1  2  1  0  0  0  0
  1 49  1  0  0  0  0
  1 50  1  0  0  0  0
  1 51  1  0  0  0  0
  2 11  1  0  0  0  0
  2  3  1  0  0  0  0
  3  4  1  0  0  0  0
  3 52  1  0  0  0  0
  3 53  1  0  0  0  0
  4  5  1  0  0  0  0
  4 54  1  0  0  0  0
  4 55  1  0  0  0  0
  5 10  2  0  0  0  0
  5  6  1  0  0  0  0
  6  7  2  0  0  0  0
  6 56  1  0  0  0  0
  7  8  1  0  0  0  0
  7 47  1  0  0  0  0
  8 38  1  0  0  0  0
  8  9  2  0  0  0  0
  9 10  1  0  0  0  0
  9 57  1  0  0  0  0
 10 11  1  0  0  0  0
 11 12  1  6  0  0  0
 11 13  1  0  0  0  0
 13 14  1  0  0  0  0
 13 58  1  0  0  0  0
 13 59  1  0  0  0  0
 14 19  2  0  0  0  0
 14 15  1  0  0  0  0
 15 16  2  0  0  0  0
 15 60  1  0  0  0  0
 16 17  1  0  0  0  0
 16 61  1  0  0  0  0
 17 18  2  0  0  0  0
 17 20  1  0  0  0  0
 18 19  1  0  0  0  0
 18 62  1  0  0  0  0
 19 63  1  0  0  0  0
 20 21  1  0  0  0  0
 21 26  2  0  0  0  0
 21 22  1  0  0  0  0
 22 23  2  0  0  0  0
 22 64  1  0  0  0  0
 23 24  1  0  0  0  0
 23 29  1  0  0  0  0
 24 25  2  0  0  0  0
 24 65  1  0  0  0  0
 25 26  1  0  0  0  0
 25 66  1  0  0  0  0
 26 27  1  0  0  0  0
 27 28  1  0  0  0  0
 28 67  1  0  0  0  0
 28 68  1  0  0  0  0
 28 69  1  0  0  0  0
 29 30  1  0  0  0  0
 29 70  1  0  0  0  0
 29 71  1  0  0  0  0
 30 31  1  6  0  0  0
 30 45  1  0  0  0  0
 30 32  1  0  0  0  0
 32 37  2  0  0  0  0
 32 33  1  0  0  0  0
 33 34  2  0  0  0  0
 33 43  1  0  0  0  0
 34 35  1  0  0  0  0
 34 72  1  0  0  0  0
 35 36  2  0  0  0  0
 35 41  1  0  0  0  0
 36 37  1  0  0  0  0
 36 39  1  0  0  0  0
 37 38  1  0  0  0  0
 39 40  1  0  0  0  0
 40 73  1  0  0  0  0
 40 74  1  0  0  0  0
 40 75  1  0  0  0  0
 41 42  1  0  0  0  0
 42 76  1  0  0  0  0
 42 77  1  0  0  0  0
 42 78  1  0  0  0  0
 43 44  1  0  0  0  0
 43 79  1  0  0  0  0
 43 80  1  0  0  0  0
 44 45  1  0  0  0  0
 44 81  1  0  0  0  0
 44 82  1  0  0  0  0
 45 46  1  0  0  0  0
 46 83  1  0  0  0  0
 46 84  1  0  0  0  0
 46 85  1  0  0  0  0
 47 48  1  0  0  0  0
 48 86  1  0  0  0  0
 48 87  1  0  0  0  0
 48 88  1  0  0  0  0
M  END
>  <cansmi>
COc1c(OC)cc2c3c1Oc1cc4c(cc1OC)CCN([C@@H]4Cc1ccc(Oc4cc(C[C@H]3N(CC2)C)ccc4OC)cc1)C

>  <HBA2>
8

>  <HBD>
0

>  <logP>
7.0382

>  <TPSA>
61.86

>  <MW>
622.75

$$$$
ZINC28116057
 OpenBabel02121623173D

 88 94  0  0  1  0  0  0  0  0999 V2000
   -2.3983   -2.8135   -0.4342 C   0  0  0  0  0  0  0  0  0  0  0  0
   -1.1184   -2.0499   -0.6022 N   0  0  0  0  0  0  0  0  0  0  0  0
   -0.1016   -2.7818    0.2265 C   0  0  0  0  0  0  0  0  0  0  0  0
    1.2620   -2.1823   -0.1231 C   0  0  0  0  0  0  0  0  0  0  0  0
    1.2047   -0.6789   -0.0493 C   0  0  0  0  0  0  0  0  0  0  0  0
    2.3898    0.0411   -0.0442 C   0  0  0  0  0  0  0  0  0  0  0  0
    2.3789    1.4269   -0.0048 C   0  0  0  0  0  0  0  0  0  0  0  0
    1.1683    2.1109    0.0022 C   0  0  0  0  0  0  0  0  0  0  0  0
   -0.0167    1.3791    0.0096 C   0  0  0  0  0  0  0  0  0  0  0  0
    0.0021   -0.0041    0.0020 C   0  0  0  0  0  0  0  0  0  0  0  0
   -1.3101   -0.7443    0.0867 C   0  0  2  0  0  0  0  0  0  0  0  0
   -2.1341   -0.2175   -0.4168 H   0  0  0  0  0  0  0  0  0  0  0  0
   -1.6787   -0.9048    1.5540 C   0  0  0  0  0  0  0  0  0  0  0  0
   -2.3112    0.3868    2.0276 C   0  0  0  0  0  0  0  0  0  0  0  0
   -3.4276    0.8782    1.3761 C   0  0  0  0  0  0  0  0  0  0  0  0
   -4.0072    2.0617    1.7933 C   0  0  0  0  0  0  0  0  0  0  0  0
   -3.4637    2.7569    2.8635 C   0  0  0  0  0  0  0  0  0  0  0  0
   -2.3493    2.2564    3.5213 C   0  0  0  0  0  0  0  0  0  0  0  0
   -1.7744    1.0719    3.1005 C   0  0  0  0  0  0  0  0  0  0  0  0
   -4.0200    3.9315    3.2723 O   0  0  0  0  0  0  0  0  0  0  0  0
   -3.3607    5.0546    2.8571 C   0  0  0  0  0  0  0  0  0  0  0  0
   -2.5421    4.9784    1.7415 C   0  0  0  0  0  0  0  0  0  0  0  0
   -1.8579    6.1006    1.3054 C   0  0  0  0  0  0  0  0  0  0  0  0
   -2.0007    7.2998    1.9760 C   0  0  0  0  0  0  0  0  0  0  0  0
   -2.8180    7.3815    3.0905 C   0  0  0  0  0  0  0  0  0  0  0  0
   -3.5003    6.2586    3.5351 C   0  0  0  0  0  0  0  0  0  0  0  0
   -4.3032    6.3358    4.6300 O   0  0  0  0  0  0  0  0  0  0  0  0
   -4.3983    7.6066    5.2764 C   0  0  0  0  0  0  0  0  0  0  0  0
   -0.9737    5.9959    0.0909 C   0  0  0  0  0  0  0  0  0  0  0  0
    0.5000    6.0590    0.4829 C   0  0  1  0  0  0  0  0  0  0  0  0
    0.7310    5.3583    1.2988 H   0  0  0  0  0  0  0  0  0  0  0  0
    1.3484    5.6677   -0.6900 C   0  0  0  0  0  0  0  0  0  0  0  0
    1.8711    6.6013   -1.5563 C   0  0  0  0  0  0  0  0  0  0  0  0
    2.5619    6.1866   -2.6842 C   0  0  0  0  0  0  0  0  0  0  0  0
    2.7072    4.8364   -2.9546 C   0  0  0  0  0  0  0  0  0  0  0  0
    2.1920    3.8889   -2.0735 C   0  0  0  0  0  0  0  0  0  0  0  0
    1.5616    4.2998   -0.9118 C   0  0  0  0  0  0  0  0  0  0  0  0
    1.0966    3.4517    0.0250 O   0  0  0  0  0  0  0  0  0  0  0  0
    2.2991    2.5707   -2.3994 O   0  0  0  0  0  0  0  0  0  0  0  0
    1.2422    2.0072   -3.1787 C   0  0  0  0  0  0  0  0  0  0  0  0
    3.3572    4.4331   -4.0798 O   0  0  0  0  0  0  0  0  0  0  0  0
    3.8608    5.4567   -4.9403 C   0  0  0  0  0  0  0  0  0  0  0  0
    1.7173    8.0713   -1.2808 C   0  0  0  0  0  0  0  0  0  0  0  0
    0.6931    8.3503   -0.2020 C   0  0  0  0  0  0  0  0  0  0  0  0
    0.8213    7.4355    0.9740 N   0  0  0  0  0  0  0  0  0  0  0  0
    2.2920    7.3934    1.3013 C   0  0  0  0  0  0  0  0  0  0  0  0
    3.5542    2.1117    0.0460 O   0  0  0  0  0  0  0  0  0  0  0  0
    4.7558    1.3383    0.0556 C   0  0  0  0  0  0  0  0  0  0  0  0
   -2.3089   -3.7922   -0.9283 H   0  0  0  0  0  0  0  0  0  0  0  0
   -3.2251   -2.2476   -0.8882 H   0  0  0  0  0  0  0  0  0  0  0  0
   -2.5995   -2.9607    0.6372 H   0  0  0  0  0  0  0  0  0  0  0  0
   -0.3291   -2.6421    1.2936 H   0  0  0  0  0  0  0  0  0  0  0  0
   -0.1326   -3.8539   -0.0177 H   0  0  0  0  0  0  0  0  0  0  0  0
    2.0169   -2.5488    0.5881 H   0  0  0  0  0  0  0  0  0  0  0  0
    1.5436   -2.4819   -1.1434 H   0  0  0  0  0  0  0  0  0  0  0  0
    3.3332   -0.4846   -0.0692 H   0  0  0  0  0  0  0  0  0  0  0  0
   -0.9589    1.9073    0.0294 H   0  0  0  0  0  0  0  0  0  0  0  0
   -2.3900   -1.7365    1.6645 H   0  0  0  0  0  0  0  0  0  0  0  0
   -0.7717   -1.1179    2.1387 H   0  0  0  0  0  0  0  0  0  0  0  0
   -3.8481    0.3385    0.5408 H   0  0  0  0  0  0  0  0  0  0  0  0
   -4.8787    2.4453    1.2840 H   0  0  0  0  0  0  0  0  0  0  0  0
   -1.9325    2.7907    4.3620 H   0  0  0  0  0  0  0  0  0  0  0  0
   -0.9044    0.6843    3.6092 H   0  0  0  0  0  0  0  0  0  0  0  0
   -2.4384    4.0477    1.2030 H   0  0  0  0  0  0  0  0  0  0  0  0
   -1.4784    8.1791    1.6291 H   0  0  0  0  0  0  0  0  0  0  0  0
   -2.9271    8.3207    3.6127 H   0  0  0  0  0  0  0  0  0  0  0  0
   -5.0747    7.5288    6.1403 H   0  0  0  0  0  0  0  0  0  0  0  0
   -4.7926    8.3498    4.5678 H   0  0  0  0  0  0  0  0  0  0  0  0
   -3.4008    7.9194    5.6187 H   0  0  0  0  0  0  0  0  0  0  0  0
   -1.1632    5.0400   -0.4193 H   0  0  0  0  0  0  0  0  0  0  0  0
   -1.1930    6.8274   -0.5951 H   0  0  0  0  0  0  0  0  0  0  0  0
    2.9786    6.9183   -3.3597 H   0  0  0  0  0  0  0  0  0  0  0  0
    1.4534    0.9446   -3.3690 H   0  0  0  0  0  0  0  0  0  0  0  0
    1.1668    2.5433   -4.1363 H   0  0  0  0  0  0  0  0  0  0  0  0
    0.2929    2.1000   -2.6307 H   0  0  0  0  0  0  0  0  0  0  0  0
    4.3598    4.9957   -5.8054 H   0  0  0  0  0  0  0  0  0  0  0  0
    4.5822    6.0774   -4.3886 H   0  0  0  0  0  0  0  0  0  0  0  0
    3.0280    6.0850   -5.2892 H   0  0  0  0  0  0  0  0  0  0  0  0
    2.6813    8.4852   -0.9500 H   0  0  0  0  0  0  0  0  0  0  0  0
    1.3935    8.5844   -2.1983 H   0  0  0  0  0  0  0  0  0  0  0  0
    0.8148    9.3814    0.1613 H   0  0  0  0  0  0  0  0  0  0  0  0
   -0.3185    8.2242   -0.6153 H   0  0  0  0  0  0  0  0  0  0  0  0
    2.6131    8.3774    1.6735 H   0  0  0  0  0  0  0  0  0  0  0  0
    2.8621    7.1402    0.3953 H   0  0  0  0  0  0  0  0  0  0  0  0
    2.4740    6.6319    2.0739 H   0  0  0  0  0  0  0  0  0  0  0  0
    5.6248    2.0114    0.0980 H   0  0  0  0  0  0  0  0  0  0  0  0
    4.8075    0.7299   -0.8593 H   0  0  0  0  0  0  0  0  0  0  0  0
    4.7600    0.6783    0.9356 H   0  0  0  0  0  0  0  0  0  0  0  0
  1  2  1  0  0  0  0
  1 49  1  0  0  0  0
  1 50  1  0  0  0  0
  1 51  1  0  0  0  0
  2 11  1  0  0  0  0
  2  3  1  0  0  0  0
  3  4  1  0  0  0  0
  3 52  1  0  0  0  0
  3 53  1  0  0  0  0
  4  5  1  0  0  0  0
  4 54  1  0  0  0  0
  4 55  1  0  0  0  0
  5 10  2  0  0  0  0
  5  6  1  0  0  0  0
  6  7  2  0  0  0  0
  6 56  1  0  0  0  0
  7  8  1  0  0  0  0
  7 47  1  0  0  0  0
  8 38  1  0  0  0  0
  8  9  2  0  0  0  0
  9 10  1  0  0  0  0
  9 57  1  0  0  0  0
 10 11  1  0  0  0  0
 11 12  1  6  0  0  0
 11 13  1  0  0  0  0
 13 14  1  0  0  0  0
 13 58  1  0  0  0  0
 13 59  1  0  0  0  0
 14 19  2  0  0  0  0
 14 15  1  0  0  0  0
 15 16  2  0  0  0  0
 15 60  1  0  0  0  0
 16 17  1  0  0  0  0
 16 61  1  0  0  0  0
 17 18  2  0  0  0  0
 17 20  1  0  0  0  0
 18 19  1  0  0  0  0
 18 62  1  0  0  0  0
 19 63  1  0  0  0  0
 20 21  1  0  0  0  0
 21 26  2  0  0  0  0
 21 22  1  0  0  0  0
 22 23  2  0  0  0  0
 22 64  1  0  0  0  0
 23 24  1  0  0  0  0
 23 29  1  0  0  0  0
 24 25  2  0  0  0  0
 24 65  1  0  0  0  0
 25 26  1  0  0  0  0
 25 66  1  0  0  0  0
 26 27  1  0  0  0  0
 27 28  1  0  0  0  0
 28 67  1  0  0  0  0
 28 68  1  0  0  0  0
 28 69  1  0  0  0  0
 29 30  1  0  0  0  0
 29 70  1  0  0  0  0
 29 71  1  0  0  0  0
 30 31  1  1  0  0  0
 30 45  1  0  0  0  0
 30 32  1  0  0  0  0
 32 37  2  0  0  0  0
 32 33  1  0  0  0  0
 33 34  2  0  0  0  0
 33 43  1  0  0  0  0
 34 35  1  0  0  0  0
 34 72  1  0  0  0  0
 35 36  2  0  0  0  0
 35 41  1  0  0  0  0
 36 37  1  0  0  0  0
 36 39  1  0  0  0  0
 37 38  1  0  0  0  0
 39 40  1  0  0  0  0
 40 73  1  0  0  0  0
 40 74  1  0  0  0  0
 40 75  1  0  0  0  0
 41 42  1  0  0  0  0
 42 76  1  0  0  0  0
 42 77  1  0  0  0  0
 42 78  1  0  0  0  0
 43 44  1  0  0  0  0
 43 79  1  0  0  0  0
 43 80  1  0  0  0  0
 44 45  1  0  0  0  0
 44 81  1  0  0  0  0
 44 82  1  0  0  0  0
 45 46  1  0  0  0  0
 46 83  1  0  0  0  0
 46 84  1  0  0  0  0
 46 85  1  0  0  0  0
 47 48  1  0  0  0  0
 48 86  1  0  0  0  0
 48 87  1  0  0  0  0
 48 88  1  0  0  0  0
M  END
>  <cansmi>
COc1c(OC)cc2c3c1Oc1cc4c(cc1OC)CCN([C@H]4Cc1ccc(Oc4cc(C[C@@H]3N(CC2)C)ccc4OC)cc1)C

>  <HBA2>
8

>  <HBD>
0

>  <logP>
7.0382

>  <TPSA>
61.86

>  <MW>
622.75

$$$$
ZINC05765036
 OpenBabel02121623173D

 25 27  0  0  0  0  0  0  0  0999 V2000
   -0.0184    1.5028    0.0103 C   0  0  0  0  0  0  0  0  0  0  0  0
    0.0021   -0.0041    0.0020 C   0  0  0  0  0  0  0  0  0  0  0  0
    0.0056   -0.6865   -1.2084 C   0  0  0  0  0  0  0  0  0  0  0  0
    0.0248   -2.0919   -1.1857 C   0  0  0  0  0  0  0  0  0  0  0  0
    0.0391   -2.7432    0.0474 C   0  0  0  0  0  0  0  0  0  0  0  0
    0.0339   -1.9836    1.1979 C   0  0  0  0  0  0  0  0  0  0  0  0
    0.0219   -0.6633    1.1422 N   0  0  0  0  0  0  0  0  0  0  0  0
    0.0242   -2.5346   -2.5884 C   0  0  0  0  0  0  0  0  0  0  0  0
    0.0383   -3.7874   -3.2002 C   0  0  0  0  0  0  0  0  0  0  0  0
    0.0330   -3.8807   -4.5734 C   0  0  0  0  0  0  0  0  0  0  0  0
    0.0136   -2.7283   -5.3537 C   0  0  0  0  0  0  0  0  0  0  0  0
    0.0086   -2.8305   -6.7086 O   0  0  0  0  0  0  0  0  0  0  0  0
   -0.0009   -1.4801   -4.7588 C   0  0  0  0  0  0  0  0  0  0  0  0
    0.0046   -1.3697   -3.3723 C   0  0  0  0  0  0  0  0  0  0  0  0
   -0.0062   -0.2742   -2.5278 N   0  0  0  0  0  0  0  0  0  0  0  0
   -0.0202    0.6508   -2.8196 H   0  0  0  0  0  0  0  0  0  0  0  0
    1.0042    1.8801    0.0026 H   0  0  0  0  0  0  0  0  0  0  0  0
   -0.5455    1.8639   -0.8728 H   0  0  0  0  0  0  0  0  0  0  0  0
   -0.5286    1.8543    0.9071 H   0  0  0  0  0  0  0  0  0  0  0  0
    0.0537   -3.8218    0.1000 H   0  0  0  0  0  0  0  0  0  0  0  0
    0.0445   -2.4751    2.1596 H   0  0  0  0  0  0  0  0  0  0  0  0
    0.0537   -4.6834   -2.5974 H   0  0  0  0  0  0  0  0  0  0  0  0
    0.0443   -4.8513   -5.0470 H   0  0  0  0  0  0  0  0  0  0  0  0
   -0.0159   -0.5905   -5.3711 H   0  0  0  0  0  0  0  0  0  0  0  0
   -0.8762   -2.8720   -7.0966 H   0  0  0  0  0  0  0  0  0  0  0  0
  1  2  1  0  0  0  0
  1 17  1  0  0  0  0
  1 18  1  0  0  0  0
  1 19  1  0  0  0  0
  2  7  2  0  0  0  0
  2  3  1  0  0  0  0
  3 15  1  0  0  0  0
  3  4  2  0  0  0  0
  4  5  1  0  0  0  0
  4  8  1  0  0  0  0
  5  6  2  0  0  0  0
  5 20  1  0  0  0  0
  6  7  1  0  0  0  0
  6 21  1  0  0  0  0
  8 14  2  0  0  0  0
  8  9  1  0  0  0  0
  9 10  2  0  0  0  0
  9 22  1  0  0  0  0
 10 11  1  0  0  0  0
 10 23  1  0  0  0  0
 11 12  1  0  0  0  0
 11 13  2  0  0  0  0
 12 25  1  0  0  0  0
 13 14  1  0  0  0  0
 13 24  1  0  0  0  0
 14 15  1  0  0  0  0
 15 16  1  0  0  0  0
M  END
>  <cansmi>
Oc1ccc2c(c1)[nH]c1c2ccnc1C

>  <HBA2>
2

>  <HBD>
2

>  <logP>
2.7301

>  <TPSA>
48.91

>  <MW>
198.221

$$$$
ZINC00391172
 OpenBabel02121623173D

 20 20  0  0  0  0  0  0  0  0999 V2000
   -0.0127    1.0858    0.0080 C   0  0  0  0  0  0  0  0  0  0  0  0
   -0.6816    1.5467    1.1837 O   0  0  0  0  0  0  0  0  0  0  0  0
   -1.9749    1.1630    1.3482 C   0  0  0  0  0  0  0  0  0  0  0  0
   -2.5894    0.3641    0.3946 C   0  0  0  0  0  0  0  0  0  0  0  0
   -3.9023   -0.0288    0.5668 C   0  0  0  0  0  0  0  0  0  0  0  0
   -4.6076    0.3820    1.6831 C   0  0  0  0  0  0  0  0  0  0  0  0
   -3.9993    1.1827    2.6318 C   0  0  0  0  0  0  0  0  0  0  0  0
   -2.6845    1.5741    2.4669 C   0  0  0  0  0  0  0  0  0  0  0  0
   -2.0223    2.4474    3.5012 C   0  0  0  0  0  0  0  0  0  0  0  0
   -2.9513    2.7334    4.5486 O   0  0  0  0  0  0  0  0  0  0  0  0
    0.0021   -0.0041    0.0020 H   0  0  0  0  0  0  0  0  0  0  0  0
    1.0099    1.4631    0.0003 H   0  0  0  0  0  0  0  0  0  0  0  0
   -0.5399    1.4469   -0.8751 H   0  0  0  0  0  0  0  0  0  0  0  0
   -2.0405    0.0467   -0.4796 H   0  0  0  0  0  0  0  0  0  0  0  0
   -4.3799   -0.6541   -0.1731 H   0  0  0  0  0  0  0  0  0  0  0  0
   -5.6353    0.0771    1.8139 H   0  0  0  0  0  0  0  0  0  0  0  0
   -4.5524    1.5028    3.5025 H   0  0  0  0  0  0  0  0  0  0  0  0
   -1.1571    1.9289    3.9144 H   0  0  0  0  0  0  0  0  0  0  0  0
   -1.6997    3.3795    3.0371 H   0  0  0  0  0  0  0  0  0  0  0  0
   -2.5922    3.2926    5.2511 H   0  0  0  0  0  0  0  0  0  0  0  0
  1  2  1  0  0  0  0
  1 11  1  0  0  0  0
  1 12  1  0  0  0  0
  1 13  1  0  0  0  0
  2  3  1  0  0  0  0
  3  8  2  0  0  0  0
  3  4  1  0  0  0  0
  4  5  2  0  0  0  0
  4 14  1  0  0  0  0
  5  6  1  0  0  0  0
  5 15  1  0  0  0  0
  6  7  2  0  0  0  0
  6 16  1  0  0  0  0
  7  8  1  0  0  0  0
  7 17  1  0  0  0  0
  8  9  1  0  0  0  0
  9 10  1  0  0  0  0
  9 18  1  0  0  0  0
  9 19  1  0  0  0  0
 10 20  1  0  0  0  0
M  END
>  <cansmi>
COc1ccccc1CO

>  <HBA2>
2

>  <HBD>
1

>  <logP>
1.1875

>  <TPSA>
29.46

>  <MW>
138.164

$$$$
ZINC18825330
 OpenBabel02121623173D

 30 32  0  0  0  0  0  0  0  0999 V2000
   -0.0168    1.3897    0.0097 C   0  0  0  0  0  0  0  0  0  0  0  0
    1.1691    2.0941    0.0021 C   0  0  0  0  0  0  0  0  0  0  0  0
    2.3804    1.4165   -0.0135 C   0  0  0  0  0  0  0  0  0  0  0  0
    2.4026    0.0286   -0.0217 C   0  0  0  0  0  0  0  0  0  0  0  0
    1.2201   -0.6816   -0.0137 C   0  0  0  0  0  0  0  0  0  0  0  0
    0.0021   -0.0041    0.0020 C   0  0  0  0  0  0  0  0  0  0  0  0
   -1.2713   -0.7647    0.0106 C   0  0  0  0  0  0  0  0  0  0  0  0
   -2.1308   -0.6985   -1.0391 C   0  0  0  0  0  0  0  0  0  0  0  0
   -3.2790   -1.3788   -1.0759 O   0  0  0  0  0  0  0  0  0  0  0  0
   -3.8133   -1.9283    0.0323 C   0  0  0  0  0  0  0  0  0  0  0  0
   -5.1371   -2.3448    0.0457 C   0  0  0  0  0  0  0  0  0  0  0  0
   -5.6741   -2.9171    1.1876 C   0  0  0  0  0  0  0  0  0  0  0  0
   -4.9001   -3.0841    2.3313 C   0  0  0  0  0  0  0  0  0  0  0  0
   -3.5799   -2.6737    2.3405 C   0  0  0  0  0  0  0  0  0  0  0  0
   -3.0336   -2.0875    1.1922 C   0  0  0  0  0  0  0  0  0  0  0  0
   -1.6367   -1.6192    1.1574 C   0  0  0  0  0  0  0  0  0  0  0  0
   -0.8325   -1.9156    2.0245 O   0  0  0  0  0  0  0  0  0  0  0  0
   -2.8202   -2.8370    3.4529 O   0  0  0  0  0  0  0  0  0  0  0  0
   -6.9707   -3.3190    1.1905 O   0  0  0  0  0  0  0  0  0  0  0  0
    3.5472    2.1134   -0.0214 O   0  0  0  0  0  0  0  0  0  0  0  0
   -0.9590    1.9174    0.0260 H   0  0  0  0  0  0  0  0  0  0  0  0
    1.1551    3.1740    0.0081 H   0  0  0  0  0  0  0  0  0  0  0  0
    3.3466   -0.4958   -0.0346 H   0  0  0  0  0  0  0  0  0  0  0  0
    1.2380   -1.7614   -0.0204 H   0  0  0  0  0  0  0  0  0  0  0  0
   -1.8749   -0.0692   -1.8787 H   0  0  0  0  0  0  0  0  0  0  0  0
   -5.7497   -2.2223   -0.8352 H   0  0  0  0  0  0  0  0  0  0  0  0
   -5.3310   -3.5346    3.2132 H   0  0  0  0  0  0  0  0  0  0  0  0
   -2.3502   -3.6814    3.4877 H   0  0  0  0  0  0  0  0  0  0  0  0
   -7.0993   -4.2345    0.9070 H   0  0  0  0  0  0  0  0  0  0  0  0
    3.8936    2.3103    0.8597 H   0  0  0  0  0  0  0  0  0  0  0  0
  1  6  2  0  0  0  0
  1  2  1  0  0  0  0
  1 21  1  0  0  0  0
  2  3  2  0  0  0  0
  2 22  1  0  0  0  0
  3  4  1  0  0  0  0
  3 20  1  0  0  0  0
  4  5  2  0  0  0  0
  4 23  1  0  0  0  0
  5  6  1  0  0  0  0
  5 24  1  0  0  0  0
  6  7  1  0  0  0  0
  7 16  1  0  0  0  0
  7  8  2  0  0  0  0
  8  9  1  0  0  0  0
  8 25  1  0  0  0  0
  9 10  1  0  0  0  0
 10 15  2  0  0  0  0
 10 11  1  0  0  0  0
 11 12  2  0  0  0  0
 11 26  1  0  0  0  0
 12 13  1  0  0  0  0
 12 19  1  0  0  0  0
 13 14  2  0  0  0  0
 13 27  1  0  0  0  0
 14 15  1  0  0  0  0
 14 18  1  0  0  0  0
 15 16  1  0  0  0  0
 16 17  2  0  0  0  0
 18 28  1  0  0  0  0
 19 29  1  0  0  0  0
 20 30  1  0  0  0  0
M  END
>  <cansmi>
Oc1ccc(cc1)c1coc2c(c1=O)c(O)cc(c2)O

>  <HBA2>
5

>  <HBD>
3

>  <logP>
2.5768

>  <TPSA>
90.9

>  <MW>
270.237

$$$$
ZINC03894277
 OpenBabel02121623173D

 40 42  0  0  1  0  0  0  0  0999 V2000
   -0.0178    1.4600    0.0101 C   0  0  0  0  0  0  0  0  0  0  0  0
    1.1707    2.1184    0.0023 C   0  0  0  0  0  0  0  0  0  0  0  0
    2.3765    1.3882   -0.0132 C   0  0  0  0  0  0  0  0  0  0  0  0
    3.4351    1.9907   -0.0201 O   0  0  0  0  0  0  0  0  0  0  0  0
    2.3880    0.0463   -0.0199 O   0  0  0  0  0  0  0  0  0  0  0  0
    1.2420   -0.6692   -0.0129 C   0  0  0  0  0  0  0  0  0  0  0  0
    0.0021   -0.0041    0.0020 C   0  0  0  0  0  0  0  0  0  0  0  0
   -1.1889   -0.7400    0.0089 C   0  0  0  0  0  0  0  0  0  0  0  0
   -1.1392   -2.1173    0.0006 C   0  0  0  0  0  0  0  0  0  0  0  0
    0.0935   -2.7762   -0.0142 C   0  0  0  0  0  0  0  0  0  0  0  0
    1.2750   -2.0558   -0.0207 C   0  0  0  0  0  0  0  0  0  0  0  0
    0.1320   -4.1337   -0.0219 O   0  0  0  0  0  0  0  0  0  0  0  0
   -2.2930   -2.8376    0.0072 O   0  0  0  0  0  0  0  0  0  0  0  0
   -3.5175   -2.1011    0.0229 C   0  0  1  0  0  0  0  0  0  0  0  0
   -3.5330   -1.4038   -0.8148 H   0  0  0  0  0  0  0  0  0  0  0  0
   -4.6973   -3.0693   -0.0969 C   0  0  1  0  0  0  0  0  0  0  0  0
   -4.5964   -3.6552   -1.0104 H   0  0  0  0  0  0  0  0  0  0  0  0
   -4.7033   -4.0069    1.1145 C   0  0  1  0  0  0  0  0  0  0  0  0
   -3.7929   -4.6063    1.1161 H   0  0  0  0  0  0  0  0  0  0  0  0
   -4.7670   -3.1685    2.3948 C   0  0  1  0  0  0  0  0  0  0  0  0
   -4.7159   -3.8253    3.2632 H   0  0  0  0  0  0  0  0  0  0  0  0
   -3.5845   -2.1964    2.4184 C   0  0  1  0  0  0  0  0  0  0  0  0
   -2.6514   -2.7594    2.4377 H   0  0  0  0  0  0  0  0  0  0  0  0
   -3.6212   -1.3750    1.2493 O   0  0  0  0  0  0  0  0  0  0  0  0
   -3.6740   -1.3141    3.6651 C   0  0  0  0  0  0  0  0  0  0  0  0
   -2.5112   -0.4877    3.7484 O   0  0  0  0  0  0  0  0  0  0  0  0
   -5.9919   -2.4331    2.4237 O   0  0  0  0  0  0  0  0  0  0  0  0
   -5.8422   -4.8674    1.0473 O   0  0  0  0  0  0  0  0  0  0  0  0
   -5.9196   -2.3301   -0.1362 O   0  0  0  0  0  0  0  0  0  0  0  0
   -0.9519    2.0019    0.0263 H   0  0  0  0  0  0  0  0  0  0  0  0
    1.1916    3.1982    0.0075 H   0  0  0  0  0  0  0  0  0  0  0  0
   -2.1414   -0.2311    0.0211 H   0  0  0  0  0  0  0  0  0  0  0  0
    2.2229   -2.5733   -0.0322 H   0  0  0  0  0  0  0  0  0  0  0  0
    0.1350   -4.5221   -0.9075 H   0  0  0  0  0  0  0  0  0  0  0  0
   -4.5625   -0.6858    3.6025 H   0  0  0  0  0  0  0  0  0  0  0  0
   -3.7363   -1.9441    4.5524 H   0  0  0  0  0  0  0  0  0  0  0  0
   -2.5001    0.0995    4.5166 H   0  0  0  0  0  0  0  0  0  0  0  0
   -6.7840   -2.9876    2.4065 H   0  0  0  0  0  0  0  0  0  0  0  0
   -5.8688   -5.4236    0.2567 H   0  0  0  0  0  0  0  0  0  0  0  0
   -5.9819   -1.7122   -0.8774 H   0  0  0  0  0  0  0  0  0  0  0  0
  1  7  1  0  0  0  0
  1  2  2  0  0  0  0
  1 30  1  0  0  0  0
  2  3  1  0  0  0  0
  2 31  1  0  0  0  0
  3  4  2  0  0  0  0
  3  5  1  0  0  0  0
  5  6  1  0  0  0  0
  6 11  2  0  0  0  0
  6  7  1  0  0  0  0
  7  8  2  0  0  0  0
  8  9  1  0  0  0  0
  8 32  1  0  0  0  0
  9 10  2  0  0  0  0
  9 13  1  0  0  0  0
 10 11  1  0  0  0  0
 10 12  1  0  0  0  0
 11 33  1  0  0  0  0
 12 34  1  0  0  0  0
 13 14  1  0  0  0  0
 14 15  1  6  0  0  0
 14 24  1  0  0  0  0
 14 16  1  0  0  0  0
 16 17  1  6  0  0  0
 16 18  1  0  0  0  0
 16 29  1  0  0  0  0
 18 19  1  1  0  0  0
 18 20  1  0  0  0  0
 18 28  1  0  0  0  0
 20 21  1  1  0  0  0
 20 22  1  0  0  0  0
 20 27  1  0  0  0  0
 22 23  1  1  0  0  0
 22 24  1  0  0  0  0
 22 25  1  0  0  0  0
 25 26  1  0  0  0  0
 25 35  1  0  0  0  0
 25 36  1  0  0  0  0
 26 37  1  0  0  0  0
 27 38  1  0  0  0  0
 28 39  1  0  0  0  0
 29 40  1  0  0  0  0
M  END
>  <cansmi>
OC[C@@H]1O[C@@H](Oc2cc3ccc(=O)oc3cc2O)[C@@H]([C@@H]([C@@H]1O)O)O

>  <HBA2>
9

>  <HBD>
5

>  <logP>
-1.3227

>  <TPSA>
149.82

>  <MW>
340.282

$$$$
ZINC03894276
 OpenBabel02121623173D

 40 42  0  0  1  0  0  0  0  0999 V2000
   -0.0178    1.4600    0.0101 C   0  0  0  0  0  0  0  0  0  0  0  0
    1.1707    2.1184    0.0023 C   0  0  0  0  0  0  0  0  0  0  0  0
    2.3765    1.3882   -0.0132 C   0  0  0  0  0  0  0  0  0  0  0  0
    3.4351    1.9907   -0.0201 O   0  0  0  0  0  0  0  0  0  0  0  0
    2.3880    0.0463   -0.0199 O   0  0  0  0  0  0  0  0  0  0  0  0
    1.2420   -0.6692   -0.0129 C   0  0  0  0  0  0  0  0  0  0  0  0
    0.0021   -0.0041    0.0020 C   0  0  0  0  0  0  0  0  0  0  0  0
   -1.1889   -0.7400    0.0089 C   0  0  0  0  0  0  0  0  0  0  0  0
   -1.1392   -2.1173    0.0006 C   0  0  0  0  0  0  0  0  0  0  0  0
    0.0935   -2.7762   -0.0142 C   0  0  0  0  0  0  0  0  0  0  0  0
    1.2750   -2.0558   -0.0207 C   0  0  0  0  0  0  0  0  0  0  0  0
    0.1320   -4.1337   -0.0219 O   0  0  0  0  0  0  0  0  0  0  0  0
   -2.2930   -2.8376    0.0072 O   0  0  0  0  0  0  0  0  0  0  0  0
   -3.5175   -2.1011    0.0229 C   0  0  2  0  0  0  0  0  0  0  0  0
   -3.4812   -1.3522    0.8141 H   0  0  0  0  0  0  0  0  0  0  0  0
   -4.6853   -3.0574    0.2784 C   0  0  1  0  0  0  0  0  0  0  0  0
   -4.5703   -3.5190    1.2591 H   0  0  0  0  0  0  0  0  0  0  0  0
   -5.9987   -2.2704    0.2339 C   0  0  1  0  0  0  0  0  0  0  0  0
   -6.0074   -1.5299    1.0337 H   0  0  0  0  0  0  0  0  0  0  0  0
   -6.1119   -1.5635   -1.1203 C   0  0  1  0  0  0  0  0  0  0  0  0
   -7.0171   -0.9565   -1.1398 H   0  0  0  0  0  0  0  0  0  0  0  0
   -4.8890   -0.6648   -1.3217 C   0  0  1  0  0  0  0  0  0  0  0  0
   -4.8707    0.1030   -0.5482 H   0  0  0  0  0  0  0  0  0  0  0  0
   -3.7005   -1.4538   -1.2379 O   0  0  0  0  0  0  0  0  0  0  0  0
   -4.9649   -0.0008   -2.6980 C   0  0  0  0  0  0  0  0  0  0  0  0
   -3.8864    0.9259   -2.8400 O   0  0  0  0  0  0  0  0  0  0  0  0
   -6.1674   -2.5375   -2.1644 O   0  0  0  0  0  0  0  0  0  0  0  0
   -7.0990   -3.1669    0.4005 O   0  0  0  0  0  0  0  0  0  0  0  0
   -4.7007   -4.0719   -0.7279 O   0  0  0  0  0  0  0  0  0  0  0  0
   -0.9519    2.0019    0.0263 H   0  0  0  0  0  0  0  0  0  0  0  0
    1.1916    3.1982    0.0075 H   0  0  0  0  0  0  0  0  0  0  0  0
   -2.1414   -0.2311    0.0211 H   0  0  0  0  0  0  0  0  0  0  0  0
    2.2229   -2.5733   -0.0322 H   0  0  0  0  0  0  0  0  0  0  0  0
    0.1350   -4.5221   -0.9075 H   0  0  0  0  0  0  0  0  0  0  0  0
   -4.8933   -0.7632   -3.4737 H   0  0  0  0  0  0  0  0  0  0  0  0
   -5.9133    0.5278   -2.7946 H   0  0  0  0  0  0  0  0  0  0  0  0
   -3.8718    1.3850   -3.6909 H   0  0  0  0  0  0  0  0  0  0  0  0
   -6.9171   -3.1446   -2.0964 H   0  0  0  0  0  0  0  0  0  0  0  0
   -7.0869   -3.6535    1.2361 H   0  0  0  0  0  0  0  0  0  0  0  0
   -3.8959   -4.6070   -0.7593 H   0  0  0  0  0  0  0  0  0  0  0  0
  1  7  1  0  0  0  0
  1  2  2  0  0  0  0
  1 30  1  0  0  0  0
  2  3  1  0  0  0  0
  2 31  1  0  0  0  0
  3  4  2  0  0  0  0
  3  5  1  0  0  0  0
  5  6  1  0  0  0  0
  6 11  2  0  0  0  0
  6  7  1  0  0  0  0
  7  8  2  0  0  0  0
  8  9  1  0  0  0  0
  8 32  1  0  0  0  0
  9 10  2  0  0  0  0
  9 13  1  0  0  0  0
 10 11  1  0  0  0  0
 10 12  1  0  0  0  0
 11 33  1  0  0  0  0
 12 34  1  0  0  0  0
 13 14  1  0  0  0  0
 14 15  1  1  0  0  0
 14 24  1  0  0  0  0
 14 16  1  0  0  0  0
 16 17  1  1  0  0  0
 16 18  1  0  0  0  0
 16 29  1  0  0  0  0
 18 19  1  1  0  0  0
 18 20  1  0  0  0  0
 18 28  1  0  0  0  0
 20 21  1  6  0  0  0
 20 22  1  0  0  0  0
 20 27  1  0  0  0  0
 22 23  1  1  0  0  0
 22 24  1  0  0  0  0
 22 25  1  0  0  0  0
 25 26  1  0  0  0  0
 25 35  1  0  0  0  0
 25 36  1  0  0  0  0
 26 37  1  0  0  0  0
 27 38  1  0  0  0  0
 28 39  1  0  0  0  0
 29 40  1  0  0  0  0
M  END
>  <cansmi>
OC[C@@H]1O[C@H](Oc2cc3ccc(=O)oc3cc2O)[C@@H]([C@@H]([C@@H]1O)O)O

>  <HBA2>
9

>  <HBD>
5

>  <logP>
-1.3227

>  <TPSA>
149.82

>  <MW>
340.282

$$$$
ZINC38146181
 OpenBabel02121623173D

 88 94  0  0  1  0  0  0  0  0999 V2000
   -0.0183    1.4954    0.0103 C   0  0  0  0  0  0  0  0  0  0  0  0
    0.0021   -0.0041    0.0020 N   0  0  0  0  0  0  0  0  0  0  0  0
   -1.4032   -0.4209    0.3387 C   0  0  0  0  0  0  0  0  0  0  0  0
   -1.4681   -1.9108   -0.0293 C   0  0  0  0  0  0  0  0  0  0  0  0
   -0.3765   -2.6361    0.7162 C   0  0  0  0  0  0  0  0  0  0  0  0
   -0.3446   -4.0203    0.7168 C   0  0  0  0  0  0  0  0  0  0  0  0
    0.6101   -4.6995    1.4572 C   0  0  0  0  0  0  0  0  0  0  0  0
    1.4811   -3.9980    2.2772 C   0  0  0  0  0  0  0  0  0  0  0  0
    1.5119   -2.6067    2.1671 C   0  0  0  0  0  0  0  0  0  0  0  0
    0.6237   -1.9315    1.3547 C   0  0  0  0  0  0  0  0  0  0  0  0
    0.8310   -0.4497    1.1512 C   0  0  2  0  0  0  0  0  0  0  0  0
    1.8762   -0.3019    0.8448 H   0  0  0  0  0  0  0  0  0  0  0  0
    0.5911    0.2775    2.4560 C   0  0  0  0  0  0  0  0  0  0  0  0
    1.8840    0.2673    3.2530 C   0  0  0  0  0  0  0  0  0  0  0  0
    3.0901    0.4651    2.6081 C   0  0  0  0  0  0  0  0  0  0  0  0
    4.2744    0.4111    3.3191 C   0  0  0  0  0  0  0  0  0  0  0  0
    4.2492    0.1786    4.6873 C   0  0  0  0  0  0  0  0  0  0  0  0
    3.0328    0.0294    5.3382 C   0  0  0  0  0  0  0  0  0  0  0  0
    1.8517    0.0713    4.6197 C   0  0  0  0  0  0  0  0  0  0  0  0
    5.4215    0.0772    5.3737 O   0  0  0  0  0  0  0  0  0  0  0  0
    5.9490   -1.1639    5.5572 C   0  0  0  0  0  0  0  0  0  0  0  0
    5.1152   -2.2696    5.5183 C   0  0  0  0  0  0  0  0  0  0  0  0
    5.6301   -3.5380    5.7197 C   0  0  0  0  0  0  0  0  0  0  0  0
    6.9817   -3.7124    5.9336 C   0  0  0  0  0  0  0  0  0  0  0  0
    7.8236   -2.6149    5.9668 C   0  0  0  0  0  0  0  0  0  0  0  0
    7.3125   -1.3387    5.7820 C   0  0  0  0  0  0  0  0  0  0  0  0
    8.1392   -0.2596    5.8255 O   0  0  0  0  0  0  0  0  0  0  0  0
    9.5258   -0.5136    6.0601 C   0  0  0  0  0  0  0  0  0  0  0  0
    4.6826   -4.6994    5.7366 C   0  0  0  0  0  0  0  0  0  0  0  0
    4.6030   -5.4236    4.3971 C   0  0  2  0  0  0  0  0  0  0  0  0
    4.5774   -4.7101    3.5810 H   0  0  0  0  0  0  0  0  0  0  0  0
    3.3441   -6.2371    4.4092 C   0  0  0  0  0  0  0  0  0  0  0  0
    3.3355   -7.5087    4.9356 C   0  0  0  0  0  0  0  0  0  0  0  0
    2.1414   -8.2040    5.0144 C   0  0  0  0  0  0  0  0  0  0  0  0
    0.9662   -7.6175    4.5758 C   0  0  0  0  0  0  0  0  0  0  0  0
    0.9746   -6.3398    4.0160 C   0  0  0  0  0  0  0  0  0  0  0  0
    2.1879   -5.6802    3.8661 C   0  0  0  0  0  0  0  0  0  0  0  0
    2.3270   -4.5444    3.1592 O   0  0  0  0  0  0  0  0  0  0  0  0
   -0.2088   -5.7497    3.6972 O   0  0  0  0  0  0  0  0  0  0  0  0
   -0.8324   -4.9575    4.7099 C   0  0  0  0  0  0  0  0  0  0  0  0
   -0.2081   -8.2905    4.6883 O   0  0  0  0  0  0  0  0  0  0  0  0
   -0.1549   -9.5958    5.2675 C   0  0  0  0  0  0  0  0  0  0  0  0
    4.6139   -8.1406    5.3990 C   0  0  0  0  0  0  0  0  0  0  0  0
    5.8290   -7.2481    5.3539 C   0  0  0  0  0  0  0  0  0  0  0  0
    5.8301   -6.2656    4.2312 N   0  0  0  0  0  0  0  0  0  0  0  0
    5.5756   -7.0876    2.9918 C   0  0  0  0  0  0  0  0  0  0  0  0
    0.7140   -6.0517    1.3203 O   0  0  0  0  0  0  0  0  0  0  0  0
   -0.1856   -6.6824    0.4065 C   0  0  0  0  0  0  0  0  0  0  0  0
    1.0041    1.8725    0.0366 H   0  0  0  0  0  0  0  0  0  0  0  0
   -0.5158    1.8570   -0.8896 H   0  0  0  0  0  0  0  0  0  0  0  0
   -0.5579    1.8466    0.8898 H   0  0  0  0  0  0  0  0  0  0  0  0
   -1.5636   -0.2781    1.3945 H   0  0  0  0  0  0  0  0  0  0  0  0
   -2.0857    0.1560   -0.2685 H   0  0  0  0  0  0  0  0  0  0  0  0
   -2.4383   -2.3085    0.2660 H   0  0  0  0  0  0  0  0  0  0  0  0
   -1.3301   -2.0277   -1.1011 H   0  0  0  0  0  0  0  0  0  0  0  0
   -1.0699   -4.5738    0.1391 H   0  0  0  0  0  0  0  0  0  0  0  0
    2.2553   -2.0607    2.7292 H   0  0  0  0  0  0  0  0  0  0  0  0
    0.2601    1.3010    2.3671 H   0  0  0  0  0  0  0  0  0  0  0  0
   -0.1635   -0.2694    3.0433 H   0  0  0  0  0  0  0  0  0  0  0  0
    3.1197    0.6756    1.5497 H   0  0  0  0  0  0  0  0  0  0  0  0
    5.2165    0.5454    2.8083 H   0  0  0  0  0  0  0  0  0  0  0  0
    3.0088   -0.1132    6.4092 H   0  0  0  0  0  0  0  0  0  0  0  0
    0.9064   -0.0454    5.1291 H   0  0  0  0  0  0  0  0  0  0  0  0
    4.0598   -2.1500    5.3237 H   0  0  0  0  0  0  0  0  0  0  0  0
    7.3829   -4.7046    6.0792 H   0  0  0  0  0  0  0  0  0  0  0  0
    8.8809   -2.7524    6.1429 H   0  0  0  0  0  0  0  0  0  0  0  0
   10.0713    0.4300    6.0707 H   0  0  0  0  0  0  0  0  0  0  0  0
    9.6461   -1.0137    7.0211 H   0  0  0  0  0  0  0  0  0  0  0  0
    9.9175   -1.1509    5.2673 H   0  0  0  0  0  0  0  0  0  0  0  0
    4.9593   -5.3837    6.5312 H   0  0  0  0  0  0  0  0  0  0  0  0
    3.6800   -4.3125    5.9739 H   0  0  0  0  0  0  0  0  0  0  0  0
    2.1239   -9.2064    5.4125 H   0  0  0  0  0  0  0  0  0  0  0  0
   -1.0403   -5.5792    5.5808 H   0  0  0  0  0  0  0  0  0  0  0  0
   -0.1666   -4.1431    4.9955 H   0  0  0  0  0  0  0  0  0  0  0  0
   -1.7659   -4.5460    4.3260 H   0  0  0  0  0  0  0  0  0  0  0  0
   -1.1581  -10.0209    5.2980 H   0  0  0  0  0  0  0  0  0  0  0  0
    0.4921  -10.2342    4.6658 H   0  0  0  0  0  0  0  0  0  0  0  0
    0.2420   -9.5279    6.2804 H   0  0  0  0  0  0  0  0  0  0  0  0
    4.4667   -8.4758    6.4328 H   0  0  0  0  0  0  0  0  0  0  0  0
    4.7996   -9.0351    4.8007 H   0  0  0  0  0  0  0  0  0  0  0  0
    5.9463   -6.7125    6.2902 H   0  0  0  0  0  0  0  0  0  0  0  0
    6.7228   -7.8731    5.2203 H   0  0  0  0  0  0  0  0  0  0  0  0
    5.4251   -6.4240    2.1403 H   0  0  0  0  0  0  0  0  0  0  0  0
    6.4327   -7.7336    2.8019 H   0  0  0  0  0  0  0  0  0  0  0  0
    4.6851   -7.6990    3.1378 H   0  0  0  0  0  0  0  0  0  0  0  0
    0.0032   -7.7558    0.3932 H   0  0  0  0  0  0  0  0  0  0  0  0
   -1.2125   -6.4980    0.7221 H   0  0  0  0  0  0  0  0  0  0  0  0
   -0.0338   -6.2743   -0.5928 H   0  0  0  0  0  0  0  0  0  0  0  0
  1  2  1  0  0  0  0
  1 49  1  0  0  0  0
  1 50  1  0  0  0  0
  1 51  1  0  0  0  0
  2 11  1  0  0  0  0
  2  3  1  0  0  0  0
  3  4  1  0  0  0  0
  3 52  1  0  0  0  0
  3 53  1  0  0  0  0
  4  5  1  0  0  0  0
  4 54  1  0  0  0  0
  4 55  1  0  0  0  0
  5 10  2  0  0  0  0
  5  6  1  0  0  0  0
  6  7  2  0  0  0  0
  6 56  1  0  0  0  0
  7  8  1  0  0  0  0
  7 47  1  0  0  0  0
  8 38  1  0  0  0  0
  8  9  2  0  0  0  0
  9 10  1  0  0  0  0
  9 57  1  0  0  0  0
 10 11  1  0  0  0  0
 11 12  1  6  0  0  0
 11 13  1  0  0  0  0
 13 14  1  0  0  0  0
 13 58  1  0  0  0  0
 13 59  1  0  0  0  0
 14 19  2  0  0  0  0
 14 15  1  0  0  0  0
 15 16  2  0  0  0  0
 15 60  1  0  0  0  0
 16 17  1  0  0  0  0
 16 61  1  0  0  0  0
 17 18  2  0  0  0  0
 17 20  1  0  0  0  0
 18 19  1  0  0  0  0
 18 62  1  0  0  0  0
 19 63  1  0  0  0  0
 20 21  1  0  0  0  0
 21 26  2  0  0  0  0
 21 22  1  0  0  0  0
 22 23  2  0  0  0  0
 22 64  1  0  0  0  0
 23 24  1  0  0  0  0
 23 29  1  0  0  0  0
 24 25  2  0  0  0  0
 24 65  1  0  0  0  0
 25 26  1  0  0  0  0
 25 66  1  0  0  0  0
 26 27  1  0  0  0  0
 27 28  1  0  0  0  0
 28 67  1  0  0  0  0
 28 68  1  0  0  0  0
 28 69  1  0  0  0  0
 29 30  1  0  0  0  0
 29 70  1  0  0  0  0
 29 71  1  0  0  0  0
 30 31  1  6  0  0  0
 30 45  1  0  0  0  0
 30 32  1  0  0  0  0
 32 37  2  0  0  0  0
 32 33  1  0  0  0  0
 33 34  2  0  0  0  0
 33 43  1  0  0  0  0
 34 35  1  0  0  0  0
 34 72  1  0  0  0  0
 35 36  2  0  0  0  0
 35 41  1  0  0  0  0
 36 37  1  0  0  0  0
 36 39  1  0  0  0  0
 37 38  1  0  0  0  0
 39 40  1  0  0  0  0
 40 73  1  0  0  0  0
 40 74  1  0  0  0  0
 40 75  1  0  0  0  0
 41 42  1  0  0  0  0
 42 76  1  0  0  0  0
 42 77  1  0  0  0  0
 42 78  1  0  0  0  0
 43 44  1  0  0  0  0
 43 79  1  0  0  0  0
 43 80  1  0  0  0  0
 44 45  1  0  0  0  0
 44 81  1  0  0  0  0
 44 82  1  0  0  0  0
 45 46  1  0  0  0  0
 46 83  1  0  0  0  0
 46 84  1  0  0  0  0
 46 85  1  0  0  0  0
 47 48  1  0  0  0  0
 48 86  1  0  0  0  0
 48 87  1  0  0  0  0
 48 88  1  0  0  0  0
M  END
>  <cansmi>
COc1c(OC)cc2c3c1Oc1cc4c(cc1OC)CCN([C@H]4Cc1ccc(Oc4cc(C[C@H]3N(CC2)C)ccc4OC)cc1)C

>  <HBA2>
8

>  <HBD>
0

>  <logP>
7.0382

>  <TPSA>
61.86

>  <MW>
622.75

$$$$
ZINC00899824
 OpenBabel02121623173D

 47 48  0  0  0  0  0  0  0  0999 V2000
   -0.0173    1.4248    0.0099 C   0  0  0  0  0  0  0  0  0  0  0  0
    0.0021   -0.0041    0.0020 O   0  0  0  0  0  0  0  0  0  0  0  0
    0.6062   -0.6075   -1.0564 C   0  0  0  0  0  0  0  0  0  0  0  0
    1.1701    0.1578   -2.0573 C   0  0  0  0  0  0  0  0  0  0  0  0
    1.7915   -0.4674   -3.1460 C   0  0  0  0  0  0  0  0  0  0  0  0
    1.8369   -1.8658   -3.2124 C   0  0  0  0  0  0  0  0  0  0  0  0
    1.2717   -2.6208   -2.2092 C   0  0  0  0  0  0  0  0  0  0  0  0
    0.6608   -1.9995   -1.1274 C   0  0  0  0  0  0  0  0  0  0  0  0
    0.1105   -2.7497   -0.1383 O   0  0  0  0  0  0  0  0  0  0  0  0
    2.3926    0.3403   -4.2140 C   0  0  0  0  0  0  0  0  0  0  0  0
    2.9934   -0.2669   -5.2666 C   0  0  0  0  0  0  0  0  0  0  0  0
    3.5700    0.5078   -6.2910 C   0  0  0  0  0  0  0  0  0  0  0  0
    4.2380   -0.1673   -7.4611 C   0  0  0  0  0  0  0  0  0  0  0  0
    4.7690    0.8780   -8.4080 C   0  0  0  0  0  0  0  0  0  0  0  0
    4.6195    2.0570   -8.1569 O   0  0  0  0  0  0  0  0  0  0  0  0
    5.4382    0.4879   -9.5835 C   0  0  0  0  0  0  0  0  0  0  0  0
    5.9159    1.4282  -10.4353 C   0  0  0  0  0  0  0  0  0  0  0  0
    6.6137    1.0215  -11.6609 C   0  0  0  0  0  0  0  0  0  0  0  0
    6.7822   -0.3375  -11.9554 C   0  0  0  0  0  0  0  0  0  0  0  0
    7.4373   -0.7158  -13.1059 C   0  0  0  0  0  0  0  0  0  0  0  0
    7.9326    0.2469  -13.9763 C   0  0  0  0  0  0  0  0  0  0  0  0
    7.7694    1.6023  -13.6901 C   0  0  0  0  0  0  0  0  0  0  0  0
    7.1082    1.9913  -12.5425 C   0  0  0  0  0  0  0  0  0  0  0  0
    8.2569    2.5409  -14.5450 O   0  0  0  0  0  0  0  0  0  0  0  0
    8.0541    3.9101  -14.1894 C   0  0  0  0  0  0  0  0  0  0  0  0
    8.5781   -0.1327  -15.1090 O   0  0  0  0  0  0  0  0  0  0  0  0
    3.5292    1.7203   -6.2316 O   0  0  0  0  0  0  0  0  0  0  0  0
    1.0053    1.8021    0.0021 H   0  0  0  0  0  0  0  0  0  0  0  0
   -0.5445    1.7859   -0.8732 H   0  0  0  0  0  0  0  0  0  0  0  0
   -0.5275    1.7763    0.9067 H   0  0  0  0  0  0  0  0  0  0  0  0
    1.1319    1.2357   -2.0014 H   0  0  0  0  0  0  0  0  0  0  0  0
    2.3148   -2.3516   -4.0503 H   0  0  0  0  0  0  0  0  0  0  0  0
    1.3073   -3.6990   -2.2614 H   0  0  0  0  0  0  0  0  0  0  0  0
   -0.8182   -2.9751   -0.2859 H   0  0  0  0  0  0  0  0  0  0  0  0
    2.3563    1.4184   -4.1613 H   0  0  0  0  0  0  0  0  0  0  0  0
    3.0298   -1.3450   -5.3193 H   0  0  0  0  0  0  0  0  0  0  0  0
    5.0615   -0.7848   -7.1027 H   0  0  0  0  0  0  0  0  0  0  0  0
    5.5711   -0.5604   -9.8068 H   0  0  0  0  0  0  0  0  0  0  0  0
    5.7830    2.4765  -10.2120 H   0  0  0  0  0  0  0  0  0  0  0  0
    6.3989   -1.0882  -11.2802 H   0  0  0  0  0  0  0  0  0  0  0  0
    7.5667   -1.7639  -13.3320 H   0  0  0  0  0  0  0  0  0  0  0  0
    6.9767    3.0405  -12.3226 H   0  0  0  0  0  0  0  0  0  0  0  0
    6.9855    4.1110  -14.1123 H   0  0  0  0  0  0  0  0  0  0  0  0
    8.5317    4.1110  -13.2305 H   0  0  0  0  0  0  0  0  0  0  0  0
    8.4902    4.5526  -14.9543 H   0  0  0  0  0  0  0  0  0  0  0  0
    7.9975   -0.2431  -15.8744 H   0  0  0  0  0  0  0  0  0  0  0  0
    3.5134   -0.7940   -7.9810 H   0  0  0  0  0  0  0  0  0  0  0  0
  1  2  1  0  0  0  0
  1 28  1  0  0  0  0
  1 29  1  0  0  0  0
  1 30  1  0  0  0  0
  2  3  1  0  0  0  0
  3  8  2  0  0  0  0
  3  4  1  0  0  0  0
  4  5  2  0  0  0  0
  4 31  1  0  0  0  0
  5  6  1  0  0  0  0
  5 10  1  0  0  0  0
  6  7  2  0  0  0  0
  6 32  1  0  0  0  0
  7  8  1  0  0  0  0
  7 33  1  0  0  0  0
  8  9  1  0  0  0  0
  9 34  1  0  0  0  0
 10 11  2  0  0  0  0
 10 35  1  0  0  0  0
 11 12  1  0  0  0  0
 11 36  1  0  0  0  0
 12 13  1  0  0  0  0
 12 27  2  0  0  0  0
 13 14  1  0  0  0  0
 13 37  1  0  0  0  0
 13 47  1  0  0  0  0
 14 15  2  0  0  0  0
 14 16  1  0  0  0  0
 16 17  2  0  0  0  0
 16 38  1  0  0  0  0
 17 18  1  0  0  0  0
 17 39  1  0  0  0  0
 18 23  2  0  0  0  0
 18 19  1  0  0  0  0
 19 20  2  0  0  0  0
 19 40  1  0  0  0  0
 20 21  1  0  0  0  0
 20 41  1  0  0  0  0
 21 22  2  0  0  0  0
 21 26  1  0  0  0  0
 22 23  1  0  0  0  0
 22 24  1  0  0  0  0
 23 42  1  0  0  0  0
 24 25  1  0  0  0  0
 25 43  1  0  0  0  0
 25 44  1  0  0  0  0
 25 45  1  0  0  0  0
 26 46  1  0  0  0  0
M  END
>  <cansmi>
COc1cc(/C=C/C(=O)CC(=O)/C=C/c2ccc(c(c2)OC)O)ccc1O

>  <HBA2>
6

>  <HBD>
2

>  <logP>
3.3699

>  <TPSA>
93.06

>  <MW>
368.38

$$$$
ZINC18847036
 OpenBabel02121623173D

 32 34  0  0  0  0  0  0  0  0999 V2000
   -0.0173    1.4248    0.0099 C   0  0  0  0  0  0  0  0  0  0  0  0
    0.0021   -0.0041    0.0020 O   0  0  0  0  0  0  0  0  0  0  0  0
   -1.2004   -0.6375    0.0101 C   0  0  0  0  0  0  0  0  0  0  0  0
   -2.3737    0.1040    0.0196 C   0  0  0  0  0  0  0  0  0  0  0  0
   -3.5956   -0.5359    0.0282 C   0  0  0  0  0  0  0  0  0  0  0  0
   -3.6513   -1.9286    0.0270 C   0  0  0  0  0  0  0  0  0  0  0  0
   -2.4713   -2.6704    0.0171 C   0  0  0  0  0  0  0  0  0  0  0  0
   -1.2525   -2.0246    0.0031 C   0  0  0  0  0  0  0  0  0  0  0  0
   -4.9636   -2.6200    0.0368 C   0  0  0  0  0  0  0  0  0  0  0  0
   -5.8171   -2.5128   -1.0152 C   0  0  0  0  0  0  0  0  0  0  0  0
   -6.9995   -3.1308   -1.0515 O   0  0  0  0  0  0  0  0  0  0  0  0
   -7.5640   -3.6477    0.0568 C   0  0  0  0  0  0  0  0  0  0  0  0
   -8.9080   -3.9984    0.0689 C   0  0  0  0  0  0  0  0  0  0  0  0
   -9.4687   -4.5366    1.2145 C   0  0  0  0  0  0  0  0  0  0  0  0
   -8.6979   -4.7317    2.3589 C   0  0  0  0  0  0  0  0  0  0  0  0
   -7.3757   -4.3886    2.3656 C   0  0  0  0  0  0  0  0  0  0  0  0
   -6.7981   -3.8418    1.2201 C   0  0  0  0  0  0  0  0  0  0  0  0
   -5.3757   -3.4479    1.1863 C   0  0  0  0  0  0  0  0  0  0  0  0
   -4.5902   -3.7827    2.0563 O   0  0  0  0  0  0  0  0  0  0  0  0
  -10.7826   -4.8774    1.2232 O   0  0  0  0  0  0  0  0  0  0  0  0
    1.0053    1.8021    0.0021 H   0  0  0  0  0  0  0  0  0  0  0  0
   -0.5445    1.7859   -0.8732 H   0  0  0  0  0  0  0  0  0  0  0  0
   -0.5275    1.7763    0.9067 H   0  0  0  0  0  0  0  0  0  0  0  0
   -2.3299    1.1831    0.0205 H   0  0  0  0  0  0  0  0  0  0  0  0
   -4.5082    0.0416    0.0363 H   0  0  0  0  0  0  0  0  0  0  0  0
   -2.5112   -3.7497    0.0161 H   0  0  0  0  0  0  0  0  0  0  0  0
   -0.3379   -2.5987   -0.0087 H   0  0  0  0  0  0  0  0  0  0  0  0
   -5.5266   -1.9016   -1.8569 H   0  0  0  0  0  0  0  0  0  0  0  0
   -9.5140   -3.8511   -0.8128 H   0  0  0  0  0  0  0  0  0  0  0  0
   -9.1479   -5.1557    3.2444 H   0  0  0  0  0  0  0  0  0  0  0  0
   -6.7804   -4.5401    3.2539 H   0  0  0  0  0  0  0  0  0  0  0  0
  -10.9546   -5.7878    0.9465 H   0  0  0  0  0  0  0  0  0  0  0  0
  1  2  1  0  0  0  0
  1 21  1  0  0  0  0
  1 22  1  0  0  0  0
  1 23  1  0  0  0  0
  2  3  1  0  0  0  0
  3  8  2  0  0  0  0
  3  4  1  0  0  0  0
  4  5  2  0  0  0  0
  4 24  1  0  0  0  0
  5  6  1  0  0  0  0
  5 25  1  0  0  0  0
  6  7  2  0  0  0  0
  6  9  1  0  0  0  0
  7  8  1  0  0  0  0
  7 26  1  0  0  0  0
  8 27  1  0  0  0  0
  9 18  1  0  0  0  0
  9 10  2  0  0  0  0
 10 11  1  0  0  0  0
 10 28  1  0  0  0  0
 11 12  1  0  0  0  0
 12 17  2  0  0  0  0
 12 13  1  0  0  0  0
 13 14  2  0  0  0  0
 13 29  1  0  0  0  0
 14 15  1  0  0  0  0
 14 20  1  0  0  0  0
 15 16  2  0  0  0  0
 15 30  1  0  0  0  0
 16 17  1  0  0  0  0
 16 31  1  0  0  0  0
 17 18  1  0  0  0  0
 18 19  2  0  0  0  0
 20 32  1  0  0  0  0
M  END
>  <cansmi>
COc1ccc(cc1)c1coc2c(c1=O)ccc(c2)O

>  <HBA2>
4

>  <HBD>
1

>  <logP>
3.1742

>  <TPSA>
59.67

>  <MW>
268.264

$$$$
ZINC02083329
 OpenBabel02121623173D

 43 46  0  0  1  0  0  0  0  0999 V2000
   -0.0186    1.5237    0.0104 C   0  0  0  0  0  0  0  0  0  0  0  0
    0.0021   -0.0041    0.0020 C   0  0  0  0  0  0  0  0  0  0  0  0
    0.6270   -0.5260   -1.2867 C   0  0  2  0  0  0  0  0  0  0  0  0
   -0.1331   -0.4229   -2.0612 H   0  0  0  0  0  0  0  0  0  0  0  0
    0.9107   -2.0118   -1.1571 C   0  0  1  0  0  0  0  0  0  0  0  0
    1.1265   -2.1275   -0.0950 H   0  0  0  0  0  0  0  0  0  0  0  0
   -0.4127   -2.7328   -1.3156 C   0  0  0  0  0  0  0  0  0  0  0  0
   -0.3012   -4.1570   -1.8149 C   0  0  0  0  0  0  0  0  0  0  0  0
    0.6020   -4.0913   -3.0618 C   0  0  0  0  0  0  0  0  0  0  0  0
    2.1220   -2.5782   -1.8309 C   0  0  2  0  0  0  0  0  0  0  0  0
    2.7044   -2.9264   -0.9779 H   0  0  0  0  0  0  0  0  0  0  0  0
    3.0697   -1.6082   -2.4609 C   0  0  1  0  0  0  0  0  0  0  0  0
    3.6796   -1.3111   -1.6078 H   0  0  0  0  0  0  0  0  0  0  0  0
    4.1292   -2.1213   -3.3888 C   0  0  0  0  0  0  0  0  0  0  0  0
    3.6798   -3.2936   -4.2365 C   0  0  0  0  0  0  0  0  0  0  0  0
    2.9925   -4.3387   -3.3834 C   0  0  0  0  0  0  0  0  0  0  0  0
    2.5057   -0.2744   -2.8912 C   0  0  0  0  0  0  0  0  0  0  0  0
    1.7644    0.2544   -1.7186 N   0  0  0  0  0  0  0  0  0  0  0  0
    2.1585    1.4083   -1.1644 C   0  0  0  0  0  0  0  0  0  0  0  0
    3.1201    1.9833   -1.6287 O   0  0  0  0  0  0  0  0  0  0  0  0
    1.4282    2.0287   -0.0007 C   0  0  0  0  0  0  0  0  0  0  0  0
   -0.5406    1.8879   -0.8745 H   0  0  0  0  0  0  0  0  0  0  0  0
   -0.5235    1.8783    0.9090 H   0  0  0  0  0  0  0  0  0  0  0  0
    0.5830   -0.3601    0.8528 H   0  0  0  0  0  0  0  0  0  0  0  0
   -1.0187   -0.3776    0.0833 H   0  0  0  0  0  0  0  0  0  0  0  0
   -0.9116   -2.7577   -0.3468 H   0  0  0  0  0  0  0  0  0  0  0  0
   -1.0355   -2.1652   -2.0071 H   0  0  0  0  0  0  0  0  0  0  0  0
   -1.2862   -4.5375   -2.0854 H   0  0  0  0  0  0  0  0  0  0  0  0
    0.1519   -4.7963   -1.0572 H   0  0  0  0  0  0  0  0  0  0  0  0
    0.2752   -3.2889   -3.7231 H   0  0  0  0  0  0  0  0  0  0  0  0
    0.5887   -5.0456   -3.5884 H   0  0  0  0  0  0  0  0  0  0  0  0
    4.4359   -1.3107   -4.0497 H   0  0  0  0  0  0  0  0  0  0  0  0
    4.9911   -2.4295   -2.7970 H   0  0  0  0  0  0  0  0  0  0  0  0
    2.9862   -2.9399   -4.9994 H   0  0  0  0  0  0  0  0  0  0  0  0
    4.5483   -3.7404   -4.7205 H   0  0  0  0  0  0  0  0  0  0  0  0
    2.5695   -5.0997   -4.0393 H   0  0  0  0  0  0  0  0  0  0  0  0
    3.7382   -4.8109   -2.7439 H   0  0  0  0  0  0  0  0  0  0  0  0
    3.3161    0.4054   -3.1540 H   0  0  0  0  0  0  0  0  0  0  0  0
    1.8399   -0.4091   -3.7436 H   0  0  0  0  0  0  0  0  0  0  0  0
    1.4357    3.1153   -0.0867 H   0  0  0  0  0  0  0  0  0  0  0  0
    1.9274    1.7288    0.9207 H   0  0  0  0  0  0  0  0  0  0  0  0
    1.9281   -3.9444   -2.4361 N   0  3  2  0  0  0  0  0  0  0  0  0
    1.9671   -4.6129   -1.6577 H   0  0  0  0  0  0  0  0  0  0  0  0
  1 21  1  0  0  0  0
  1  2  1  0  0  0  0
  1 22  1  0  0  0  0
  1 23  1  0  0  0  0
  2  3  1  0  0  0  0
  2 24  1  0  0  0  0
  2 25  1  0  0  0  0
  3  4  1  6  0  0  0
  3 18  1  0  0  0  0
  3  5  1  0  0  0  0
  5  6  1  1  0  0  0
  5 10  1  0  0  0  0
  5  7  1  0  0  0  0
  7  8  1  0  0  0  0
  7 26  1  0  0  0  0
  7 27  1  0  0  0  0
  8  9  1  0  0  0  0
  8 28  1  0  0  0  0
  8 29  1  0  0  0  0
  9 30  1  0  0  0  0
  9 31  1  0  0  0  0
  9 42  1  0  0  0  0
 10 11  1  1  0  0  0
 10 12  1  0  0  0  0
 10 42  1  0  0  0  0
 12 13  1  1  0  0  0
 12 14  1  0  0  0  0
 12 17  1  0  0  0  0
 14 15  1  0  0  0  0
 14 32  1  0  0  0  0
 14 33  1  0  0  0  0
 15 16  1  0  0  0  0
 15 34  1  0  0  0  0
 15 35  1  0  0  0  0
 16 36  1  0  0  0  0
 16 37  1  0  0  0  0
 16 42  1  0  0  0  0
 17 18  1  0  0  0  0
 17 38  1  0  0  0  0
 17 39  1  0  0  0  0
 18 19  1  0  0  0  0
 19 20  2  0  0  0  0
 19 21  1  0  0  0  0
 21 40  1  0  0  0  0
 21 41  1  0  0  0  0
 42 43  1  1  0  0  0
M  CHG  1  42   1
M  END
>  <cansmi>
O=C1CCC[C@H]2N1C[C@@H]1CCC[N@H+]3[C@@H]1[C@@H]2CCC3

>  <HBA2>
2

>  <HBD>
1

>  <logP>
1.9617

>  <TPSA>
24.75

>  <MW>
249.372

$$$$
ZINC00056550
 OpenBabel02121623173D

 31 31  0  0  0  0  0  0  0  0999 V2000
    1.5338    0.0377    8.5815 C   0  0  0  0  0  0  0  0  0  0  0  0
    0.9429    0.4408    7.2551 C   0  0  0  0  0  0  0  0  0  0  0  0
    1.5157    0.0450    6.1259 C   0  0  0  0  0  0  0  0  0  0  0  0
    0.9366    0.4400    4.8261 C   0  0  0  0  0  0  0  0  0  0  0  0
   -0.2139    1.2302    4.7832 C   0  0  0  0  0  0  0  0  0  0  0  0
   -0.7521    1.5980    3.5649 C   0  0  0  0  0  0  0  0  0  0  0  0
   -0.1486    1.1820    2.3800 C   0  0  0  0  0  0  0  0  0  0  0  0
    0.9901    0.3929    2.4172 C   0  0  0  0  0  0  0  0  0  0  0  0
    1.5395    0.0239    3.6335 C   0  0  0  0  0  0  0  0  0  0  0  0
    2.6590   -0.7457    3.6692 O   0  0  0  0  0  0  0  0  0  0  0  0
    3.2202   -1.1332    2.4134 C   0  0  0  0  0  0  0  0  0  0  0  0
   -0.6816    1.5467    1.1837 O   0  0  0  0  0  0  0  0  0  0  0  0
   -0.0127    1.0858    0.0080 C   0  0  0  0  0  0  0  0  0  0  0  0
   -1.8732    2.3680    3.5223 O   0  0  0  0  0  0  0  0  0  0  0  0
   -2.4399    2.7587    4.7746 C   0  0  0  0  0  0  0  0  0  0  0  0
    1.5449   -1.0495    8.6589 H   0  0  0  0  0  0  0  0  0  0  0  0
    2.5527    0.4177    8.6558 H   0  0  0  0  0  0  0  0  0  0  0  0
    0.9312    0.4534    9.3891 H   0  0  0  0  0  0  0  0  0  0  0  0
    0.0530    1.0521    7.2238 H   0  0  0  0  0  0  0  0  0  0  0  0
    2.4055   -0.5662    6.1572 H   0  0  0  0  0  0  0  0  0  0  0  0
   -0.6821    1.5538    5.7011 H   0  0  0  0  0  0  0  0  0  0  0  0
    1.4521    0.0691    1.4963 H   0  0  0  0  0  0  0  0  0  0  0  0
    4.1074   -1.7428    2.5846 H   0  0  0  0  0  0  0  0  0  0  0  0
    2.4865   -1.7096    1.8500 H   0  0  0  0  0  0  0  0  0  0  0  0
    3.4948   -0.2428    1.8479 H   0  0  0  0  0  0  0  0  0  0  0  0
    0.0021   -0.0041    0.0020 H   0  0  0  0  0  0  0  0  0  0  0  0
    1.0099    1.4631    0.0003 H   0  0  0  0  0  0  0  0  0  0  0  0
   -0.5399    1.4469   -0.8751 H   0  0  0  0  0  0  0  0  0  0  0  0
   -2.7165    1.8697    5.3414 H   0  0  0  0  0  0  0  0  0  0  0  0
   -1.7087    3.3369    5.3397 H   0  0  0  0  0  0  0  0  0  0  0  0
   -3.3265    3.3676    4.5980 H   0  0  0  0  0  0  0  0  0  0  0  0
  1  2  1  0  0  0  0
  1 16  1  0  0  0  0
  1 17  1  0  0  0  0
  1 18  1  0  0  0  0
  2  3  2  0  0  0  0
  2 19  1  0  0  0  0
  3  4  1  0  0  0  0
  3 20  1  0  0  0  0
  4  9  2  0  0  0  0
  4  5  1  0  0  0  0
  5  6  2  0  0  0  0
  5 21  1  0  0  0  0
  6  7  1  0  0  0  0
  6 14  1  0  0  0  0
  7  8  2  0  0  0  0
  7 12  1  0  0  0  0
  8  9  1  0  0  0  0
  8 22  1  0  0  0  0
  9 10  1  0  0  0  0
 10 11  1  0  0  0  0
 11 23  1  0  0  0  0
 11 24  1  0  0  0  0
 11 25  1  0  0  0  0
 12 13  1  0  0  0  0
 13 26  1  0  0  0  0
 13 27  1  0  0  0  0
 13 28  1  0  0  0  0
 14 15  1  0  0  0  0
 15 29  1  0  0  0  0
 15 30  1  0  0  0  0
 15 31  1  0  0  0  0
M  END
>  <cansmi>
C/C=C/c1cc(OC)c(cc1OC)OC

>  <HBA2>
3

>  <HBD>
0

>  <logP>
2.7455

>  <TPSA>
27.69

>  <MW>
208.254

$$$$
ZINC04349847
 OpenBabel02121623173D

 55 57  0  0  1  0  0  0  0  0999 V2000
   -2.6592    2.6971    0.1829 C   0  0  0  0  0  0  0  0  0  0  0  0
   -2.6292    1.2780   -0.3883 C   0  0  2  0  0  0  0  0  0  0  0  0
   -4.0543    0.8124   -0.6985 C   0  0  0  0  0  0  0  0  0  0  0  0
   -4.8831    0.7924    0.5862 C   0  0  0  0  0  0  0  0  0  0  0  0
   -4.2426   -0.1756    1.5839 C   0  0  1  0  0  0  0  0  0  0  0  0
   -4.2023   -1.1742    1.1488 H   0  0  0  0  0  0  0  0  0  0  0  0
   -2.8251    0.2986    1.9062 C   0  0  2  0  0  0  0  0  0  0  0  0
   -1.9860    0.3312    0.6260 C   0  0  2  0  0  0  0  0  0  0  0  0
   -1.9296   -0.6716    0.2025 H   0  0  0  0  0  0  0  0  0  0  0  0
   -0.5764    0.8202    0.9746 C   0  0  0  0  0  0  0  0  0  0  0  0
    0.3052    0.7787   -0.2769 C   0  0  0  0  0  0  0  0  0  0  0  0
   -0.3738    1.5811   -1.3651 C   0  0  0  0  0  0  0  0  0  0  0  0
    0.2698    2.5235   -2.0083 C   0  0  0  0  0  0  0  0  0  0  0  0
   -1.8161    1.2649   -1.6889 C   0  0  2  0  0  0  0  0  0  0  0  0
   -1.8794    0.2789   -2.1494 H   0  0  0  0  0  0  0  0  0  0  0  0
   -2.3680    2.3173   -2.6526 C   0  0  0  0  0  0  0  0  0  0  0  0
   -1.7264    2.1453   -4.0053 C   0  0  0  0  0  0  0  0  0  0  0  0
   -2.4854    1.9705   -5.0844 C   0  0  0  0  0  0  0  0  0  0  0  0
   -3.9986    1.9132   -5.1294 C   0  0  1  0  0  0  0  0  0  0  0  0
   -4.4268    2.8521   -4.7787 H   0  0  0  0  0  0  0  0  0  0  0  0
   -4.3212    1.7000   -6.6177 C   0  0  0  0  0  0  0  0  0  0  0  0
   -3.0485    1.6392   -7.3108 O   0  0  0  0  0  0  0  0  0  0  0  0
   -2.0214    1.7887   -6.4655 C   0  0  0  0  0  0  0  0  0  0  0  0
   -0.8528    1.7758   -6.7990 O   0  0  0  0  0  0  0  0  0  0  0  0
   -4.4815    0.8185   -4.3481 O   0  0  0  0  0  0  0  0  0  0  0  0
   -2.1846   -0.6622    2.9100 C   0  0  0  0  0  0  0  0  0  0  0  0
   -2.8837    1.7023    2.5119 C   0  0  0  0  0  0  0  0  0  0  0  0
   -3.5012    1.6403    3.7992 O   0  0  0  0  0  0  0  0  0  0  0  0
   -5.0192   -0.2084    2.7830 O   0  0  0  0  0  0  0  0  0  0  0  0
   -2.4238    3.4113   -0.6061 H   0  0  0  0  0  0  0  0  0  0  0  0
   -3.6522    2.9081    0.5796 H   0  0  0  0  0  0  0  0  0  0  0  0
   -1.9229    2.7827    0.9820 H   0  0  0  0  0  0  0  0  0  0  0  0
   -4.5112    1.4960   -1.4140 H   0  0  0  0  0  0  0  0  0  0  0  0
   -4.0232   -0.1901   -1.1254 H   0  0  0  0  0  0  0  0  0  0  0  0
   -5.8975    0.4637    0.3600 H   0  0  0  0  0  0  0  0  0  0  0  0
   -4.9122    1.7931    1.0173 H   0  0  0  0  0  0  0  0  0  0  0  0
   -0.1473    0.1761    1.7422 H   0  0  0  0  0  0  0  0  0  0  0  0
   -0.6291    1.8430    1.3476 H   0  0  0  0  0  0  0  0  0  0  0  0
    0.4294   -0.2534   -0.6047 H   0  0  0  0  0  0  0  0  0  0  0  0
    1.2799    1.2130   -0.0541 H   0  0  0  0  0  0  0  0  0  0  0  0
    1.2941    2.7500   -1.7514 H   0  0  0  0  0  0  0  0  0  0  0  0
   -0.2238    3.0741   -2.7955 H   0  0  0  0  0  0  0  0  0  0  0  0
   -3.4473    2.1956   -2.7443 H   0  0  0  0  0  0  0  0  0  0  0  0
   -2.1459    3.3131   -2.2691 H   0  0  0  0  0  0  0  0  0  0  0  0
   -0.6506    2.1639   -4.0990 H   0  0  0  0  0  0  0  0  0  0  0  0
   -4.9146    2.5314   -6.9982 H   0  0  0  0  0  0  0  0  0  0  0  0
   -4.8633    0.7635   -6.7489 H   0  0  0  0  0  0  0  0  0  0  0  0
   -5.4448    0.7346   -4.3417 H   0  0  0  0  0  0  0  0  0  0  0  0
   -1.1757   -0.3229    3.1448 H   0  0  0  0  0  0  0  0  0  0  0  0
   -2.7814   -0.6861    3.8218 H   0  0  0  0  0  0  0  0  0  0  0  0
   -2.1404   -1.6622    2.4784 H   0  0  0  0  0  0  0  0  0  0  0  0
   -1.8727    2.0971    2.6126 H   0  0  0  0  0  0  0  0  0  0  0  0
   -3.4655    2.3549    1.8610 H   0  0  0  0  0  0  0  0  0  0  0  0
   -3.5721    2.4965    4.2430 H   0  0  0  0  0  0  0  0  0  0  0  0
   -5.9316   -0.5009    2.6528 H   0  0  0  0  0  0  0  0  0  0  0  0
  1 30  1  0  0  0  0
  1 31  1  0  0  0  0
  1 32  1  0  0  0  0
  2  1  1  1  0  0  0
  2  8  1  0  0  0  0
  2 14  1  0  0  0  0
  2  3  1  0  0  0  0
  3  4  1  0  0  0  0
  3 33  1  0  0  0  0
  3 34  1  0  0  0  0
  4  5  1  0  0  0  0
  4 35  1  0  0  0  0
  4 36  1  0  0  0  0
  5  6  1  6  0  0  0
  5  7  1  0  0  0  0
  5 29  1  0  0  0  0
  7  8  1  0  0  0  0
  7 26  1  1  0  0  0
  7 27  1  0  0  0  0
  8  9  1  6  0  0  0
  8 10  1  0  0  0  0
 10 11  1  0  0  0  0
 10 37  1  0  0  0  0
 10 38  1  0  0  0  0
 11 12  1  0  0  0  0
 11 39  1  0  0  0  0
 11 40  1  0  0  0  0
 12 13  2  0  0  0  0
 12 14  1  0  0  0  0
 13 41  1  0  0  0  0
 13 42  1  0  0  0  0
 14 15  1  6  0  0  0
 14 16  1  0  0  0  0
 16 17  1  0  0  0  0
 16 43  1  0  0  0  0
 16 44  1  0  0  0  0
 17 18  2  0  0  0  0
 17 45  1  0  0  0  0
 18 23  1  0  0  0  0
 18 19  1  0  0  0  0
 19 20  1  1  0  0  0
 19 21  1  0  0  0  0
 19 25  1  0  0  0  0
 21 22  1  0  0  0  0
 21 46  1  0  0  0  0
 21 47  1  0  0  0  0
 22 23  1  0  0  0  0
 23 24  2  0  0  0  0
 25 48  1  0  0  0  0
 26 49  1  0  0  0  0
 26 50  1  0  0  0  0
 26 51  1  0  0  0  0
 27 28  1  0  0  0  0
 27 52  1  0  0  0  0
 27 53  1  0  0  0  0
 28 54  1  0  0  0  0
 29 55  1  0  0  0  0
M  END
>  <cansmi>
OC[C@@]1(C)[C@@H](O)CC[C@]2([C@H]1CCC(=C)[C@@H]2C/C=C/1\[C@H](O)COC1=O)C

>  <HBA2>
5

>  <HBD>
3

>  <logP>
1.9626

>  <TPSA>
86.99

>  <MW>
350.449

$$$$
ZINC04349849
 OpenBabel02121623173D

 55 57  0  0  1  0  0  0  0  0999 V2000
    1.7268    3.5246    2.0048 C   0  0  0  0  0  0  0  0  0  0  0  0
    0.9341    4.1751    0.8692 C   0  0  2  0  0  0  0  0  0  0  0  0
   -0.5367    3.7620    0.9686 C   0  0  0  0  0  0  0  0  0  0  0  0
   -0.6575    2.2434    0.8362 C   0  0  0  0  0  0  0  0  0  0  0  0
   -0.1031    1.8106   -0.5232 C   0  0  2  0  0  0  0  0  0  0  0  0
   -0.1953    0.7295   -0.6265 H   0  0  0  0  0  0  0  0  0  0  0  0
    1.3702    2.2088   -0.6160 C   0  0  2  0  0  0  0  0  0  0  0  0
    1.5063    3.7274   -0.4766 C   0  0  2  0  0  0  0  0  0  0  0  0
    0.9620    4.2170   -1.2842 H   0  0  0  0  0  0  0  0  0  0  0  0
    2.9899    4.0977   -0.5605 C   0  0  0  0  0  0  0  0  0  0  0  0
    3.1435    5.6205   -0.5099 C   0  0  0  0  0  0  0  0  0  0  0  0
    2.4520    6.1274    0.7368 C   0  0  0  0  0  0  0  0  0  0  0  0
    3.0748    6.9126    1.5804 C   0  0  0  0  0  0  0  0  0  0  0  0
    1.0221    5.7023    0.9810 C   0  0  2  0  0  0  0  0  0  0  0  0
    0.3722    6.1612    0.2359 H   0  0  0  0  0  0  0  0  0  0  0  0
    0.5861    6.1399    2.3808 C   0  0  0  0  0  0  0  0  0  0  0  0
    0.4268    7.6382    2.4118 C   0  0  0  0  0  0  0  0  0  0  0  0
   -0.7241    8.1770    2.8071 C   0  0  0  0  0  0  0  0  0  0  0  0
   -1.9683    7.4348    3.2499 C   0  0  1  0  0  0  0  0  0  0  0  0
   -1.7587    6.8309    4.1328 H   0  0  0  0  0  0  0  0  0  0  0  0
   -2.9694    8.5513    3.5898 C   0  0  0  0  0  0  0  0  0  0  0  0
   -2.2908    9.8066    3.3299 O   0  0  0  0  0  0  0  0  0  0  0  0
   -1.0408    9.6080    2.8941 C   0  0  0  0  0  0  0  0  0  0  0  0
   -0.2662   10.4993    2.6067 O   0  0  0  0  0  0  0  0  0  0  0  0
   -2.4673    6.6171    2.1896 O   0  0  0  0  0  0  0  0  0  0  0  0
    1.9314    1.7699   -1.9700 C   0  0  0  0  0  0  0  0  0  0  0  0
    2.1538    1.5240    0.5055 C   0  0  0  0  0  0  0  0  0  0  0  0
    2.1796    0.1137    0.2763 O   0  0  0  0  0  0  0  0  0  0  0  0
   -0.8381    2.4541   -1.5662 O   0  0  0  0  0  0  0  0  0  0  0  0
    2.6823    3.1660    1.6220 H   0  0  0  0  0  0  0  0  0  0  0  0
    1.9029    4.2582    2.7916 H   0  0  0  0  0  0  0  0  0  0  0  0
    1.1599    2.6864    2.4099 H   0  0  0  0  0  0  0  0  0  0  0  0
   -0.9366    4.0747    1.9331 H   0  0  0  0  0  0  0  0  0  0  0  0
   -1.1024    4.2407    0.1692 H   0  0  0  0  0  0  0  0  0  0  0  0
   -1.7056    1.9537    0.9110 H   0  0  0  0  0  0  0  0  0  0  0  0
   -0.0882    1.7622    1.6315 H   0  0  0  0  0  0  0  0  0  0  0  0
    3.5234    3.6511    0.2785 H   0  0  0  0  0  0  0  0  0  0  0  0
    3.4054    3.7219   -1.4956 H   0  0  0  0  0  0  0  0  0  0  0  0
    2.6832    6.0656   -1.3920 H   0  0  0  0  0  0  0  0  0  0  0  0
    4.2011    5.8820   -0.4754 H   0  0  0  0  0  0  0  0  0  0  0  0
    2.5586    7.2860    2.4525 H   0  0  0  0  0  0  0  0  0  0  0  0
    4.1044    7.1867    1.4037 H   0  0  0  0  0  0  0  0  0  0  0  0
   -0.3646    5.6683    2.6293 H   0  0  0  0  0  0  0  0  0  0  0  0
    1.3414    5.8397    3.1071 H   0  0  0  0  0  0  0  0  0  0  0  0
    1.2467    8.2747    2.1133 H   0  0  0  0  0  0  0  0  0  0  0  0
   -3.2582    8.4929    4.6392 H   0  0  0  0  0  0  0  0  0  0  0  0
   -3.8510    8.4646    2.9546 H   0  0  0  0  0  0  0  0  0  0  0  0
   -3.2639    6.1190    2.4186 H   0  0  0  0  0  0  0  0  0  0  0  0
    1.3723    2.2556   -2.7698 H   0  0  0  0  0  0  0  0  0  0  0  0
    2.9818    2.0533   -2.0371 H   0  0  0  0  0  0  0  0  0  0  0  0
    1.8400    0.6882   -2.0679 H   0  0  0  0  0  0  0  0  0  0  0  0
    3.1738    1.9079    0.5229 H   0  0  0  0  0  0  0  0  0  0  0  0
    1.6725    1.7279    1.4620 H   0  0  0  0  0  0  0  0  0  0  0  0
    2.6609   -0.3855    0.9502 H   0  0  0  0  0  0  0  0  0  0  0  0
   -1.7827    2.2474   -1.5670 H   0  0  0  0  0  0  0  0  0  0  0  0
  1 30  1  0  0  0  0
  1 31  1  0  0  0  0
  1 32  1  0  0  0  0
  2  1  1  1  0  0  0
  2  8  1  0  0  0  0
  2 14  1  0  0  0  0
  2  3  1  0  0  0  0
  3  4  1  0  0  0  0
  3 33  1  0  0  0  0
  3 34  1  0  0  0  0
  4  5  1  0  0  0  0
  4 35  1  0  0  0  0
  4 36  1  0  0  0  0
  5  6  1  6  0  0  0
  5  7  1  0  0  0  0
  5 29  1  0  0  0  0
  7  8  1  0  0  0  0
  7 26  1  6  0  0  0
  7 27  1  0  0  0  0
  8  9  1  6  0  0  0
  8 10  1  0  0  0  0
 10 11  1  0  0  0  0
 10 37  1  0  0  0  0
 10 38  1  0  0  0  0
 11 12  1  0  0  0  0
 11 39  1  0  0  0  0
 11 40  1  0  0  0  0
 12 13  2  0  0  0  0
 12 14  1  0  0  0  0
 13 41  1  0  0  0  0
 13 42  1  0  0  0  0
 14 15  1  6  0  0  0
 14 16  1  0  0  0  0
 16 17  1  0  0  0  0
 16 43  1  0  0  0  0
 16 44  1  0  0  0  0
 17 18  2  0  0  0  0
 17 45  1  0  0  0  0
 18 23  1  0  0  0  0
 18 19  1  0  0  0  0
 19 20  1  1  0  0  0
 19 21  1  0  0  0  0
 19 25  1  0  0  0  0
 21 22  1  0  0  0  0
 21 46  1  0  0  0  0
 21 47  1  0  0  0  0
 22 23  1  0  0  0  0
 23 24  2  0  0  0  0
 25 48  1  0  0  0  0
 26 49  1  0  0  0  0
 26 50  1  0  0  0  0
 26 51  1  0  0  0  0
 27 28  1  0  0  0  0
 27 52  1  0  0  0  0
 27 53  1  0  0  0  0
 28 54  1  0  0  0  0
 29 55  1  0  0  0  0
M  END
>  <cansmi>
OC[C@@]1(C)[C@H](O)CC[C@]2([C@H]1CCC(=C)[C@@H]2C/C=C/1\[C@H](O)COC1=O)C

>  <HBA2>
5

>  <HBD>
3

>  <logP>
1.9626

>  <TPSA>
86.99

>  <MW>
350.449

$$$$
ZINC04349851
 OpenBabel02121623173D

 68 72  0  0  1  0  0  0  0  0999 V2000
    0.8126   -0.8934   -4.9149 C   0  0  0  0  0  0  0  0  0  0  0  0
   -0.4579   -0.3605   -4.2494 C   0  0  1  0  0  0  0  0  0  0  0  0
   -1.2855   -1.0456   -4.4332 H   0  0  0  0  0  0  0  0  0  0  0  0
   -0.2307   -0.2137   -2.7372 C   0  0  2  0  0  0  0  0  0  0  0  0
    0.6381   -0.7798   -2.4012 H   0  0  0  0  0  0  0  0  0  0  0  0
   -1.5156   -0.6020   -1.9823 C   0  0  0  0  0  0  0  0  0  0  0  0
   -2.0567    0.6916   -1.3361 C   0  0  0  0  0  0  0  0  0  0  0  0
   -0.7974    1.5943   -1.2058 C   0  0  2  0  0  0  0  0  0  0  0  0
   -1.0536    2.6496   -1.1118 H   0  0  0  0  0  0  0  0  0  0  0  0
   -0.0528    1.3027   -2.5117 C   0  0  1  0  0  0  0  0  0  0  0  0
    1.3957    1.7275   -2.4901 C   0  0  0  0  0  0  0  0  0  0  0  0
    2.1183    1.1352   -1.2811 C   0  0  0  0  0  0  0  0  0  0  0  0
    1.4174    1.6153   -0.0028 C   0  0  1  0  0  0  0  0  0  0  0  0
    1.3998    2.7052    0.0070 H   0  0  0  0  0  0  0  0  0  0  0  0
   -0.0127    1.0858    0.0080 C   0  0  1  0  0  0  0  0  0  0  0  0
    0.0021   -0.0041    0.0020 H   0  0  0  0  0  0  0  0  0  0  0  0
   -0.7129    1.5825    1.2794 C   0  0  0  0  0  0  0  0  0  0  0  0
    0.0853    1.1720    2.4814 C   0  0  0  0  0  0  0  0  0  0  0  0
    1.3695    0.9725    2.4412 C   0  0  0  0  0  0  0  0  0  0  0  0
    2.1985    1.1125    1.2003 C   0  0  2  0  0  0  0  0  0  0  0  0
    3.3840    2.0392    1.4843 C   0  0  0  0  0  0  0  0  0  0  0  0
    4.1580    1.5134    2.6951 C   0  0  0  0  0  0  0  0  0  0  0  0
    3.2599    1.5357    3.9329 C   0  0  1  0  0  0  0  0  0  0  0  0
    2.8856    2.5470    4.0918 H   0  0  0  0  0  0  0  0  0  0  0  0
    2.0798    0.5812    3.7266 C   0  0  0  0  0  0  0  0  0  0  0  0
    3.2372    1.2324    6.3350 C   0  0  0  0  0  0  0  0  0  0  0  0
    4.5353   -0.2600    4.9385 C   0  0  0  0  0  0  0  0  0  0  0  0
    2.7528   -0.2725    0.8606 C   0  0  0  0  0  0  0  0  0  0  0  0
   -0.8044    1.9463   -3.6892 C   0  0  0  0  0  0  0  0  0  0  0  0
   -2.0678    0.9481   -5.5010 C   0  0  0  0  0  0  0  0  0  0  0  0
    1.6338   -0.1987   -4.7388 H   0  0  0  0  0  0  0  0  0  0  0  0
    1.0631   -1.8666   -4.4928 H   0  0  0  0  0  0  0  0  0  0  0  0
    0.6460   -0.9946   -5.9874 H   0  0  0  0  0  0  0  0  0  0  0  0
   -2.2499   -1.0067   -2.6789 H   0  0  0  0  0  0  0  0  0  0  0  0
   -1.2875   -1.3375   -1.2108 H   0  0  0  0  0  0  0  0  0  0  0  0
   -2.7993    1.1599   -1.9821 H   0  0  0  0  0  0  0  0  0  0  0  0
   -2.4836    0.4796   -0.3559 H   0  0  0  0  0  0  0  0  0  0  0  0
    1.4497    2.8151   -2.4426 H   0  0  0  0  0  0  0  0  0  0  0  0
    1.8835    1.3846   -3.4026 H   0  0  0  0  0  0  0  0  0  0  0  0
    3.1560    1.4686   -1.2761 H   0  0  0  0  0  0  0  0  0  0  0  0
    2.0844    0.0468   -1.3296 H   0  0  0  0  0  0  0  0  0  0  0  0
   -0.7962    2.6688    1.2477 H   0  0  0  0  0  0  0  0  0  0  0  0
   -1.7085    1.1431    1.3413 H   0  0  0  0  0  0  0  0  0  0  0  0
   -0.4292    1.0366    3.4213 H   0  0  0  0  0  0  0  0  0  0  0  0
    4.0416    2.0655    0.6155 H   0  0  0  0  0  0  0  0  0  0  0  0
    3.0181    3.0443    1.6942 H   0  0  0  0  0  0  0  0  0  0  0  0
    4.4830    0.4912    2.5015 H   0  0  0  0  0  0  0  0  0  0  0  0
    5.0299    2.1440    2.8696 H   0  0  0  0  0  0  0  0  0  0  0  0
    2.4448   -0.4428    3.6477 H   0  0  0  0  0  0  0  0  0  0  0  0
    1.3906    0.6619    4.5672 H   0  0  0  0  0  0  0  0  0  0  0  0
    2.3493    0.6052    6.2559 H   0  0  0  0  0  0  0  0  0  0  0  0
    3.8341    0.9112    7.1886 H   0  0  0  0  0  0  0  0  0  0  0  0
    2.9372    2.2713    6.4718 H   0  0  0  0  0  0  0  0  0  0  0  0
    5.1791   -0.3061    4.0601 H   0  0  0  0  0  0  0  0  0  0  0  0
    5.1046   -0.5496    5.8218 H   0  0  0  0  0  0  0  0  0  0  0  0
    3.6944   -0.9413    4.8088 H   0  0  0  0  0  0  0  0  0  0  0  0
    3.4068   -0.1990   -0.0083 H   0  0  0  0  0  0  0  0  0  0  0  0
    3.3184   -0.6558    1.7098 H   0  0  0  0  0  0  0  0  0  0  0  0
    1.9279   -0.9495    0.6382 H   0  0  0  0  0  0  0  0  0  0  0  0
   -1.8336    2.1617   -3.4018 H   0  0  0  0  0  0  0  0  0  0  0  0
   -0.3028    2.8644   -3.9949 H   0  0  0  0  0  0  0  0  0  0  0  0
   -2.2687    1.9354   -5.9170 H   0  0  0  0  0  0  0  0  0  0  0  0
   -2.0251    0.2160   -6.3074 H   0  0  0  0  0  0  0  0  0  0  0  0
   -2.8633    0.6777   -4.8065 H   0  0  0  0  0  0  0  0  0  0  0  0
    4.0565    1.1279    5.1092 N   0  3  0  0  0  0  0  0  0  0  0  0
    4.8672    1.7520    5.1957 H   0  0  0  0  0  0  0  0  0  0  0  0
   -0.7646    0.9723   -4.7947 N   0  3  2  0  0  0  0  0  0  0  0  0
   -0.0295    1.2436   -5.4582 H   0  0  0  0  0  0  0  0  0  0  0  0
  1  2  1  0  0  0  0
  1 31  1  0  0  0  0
  1 32  1  0  0  0  0
  1 33  1  0  0  0  0
  2  3  1  6  0  0  0
  2  4  1  0  0  0  0
  2 67  1  0  0  0  0
  4  5  1  1  0  0  0
  4 10  1  0  0  0  0
  4  6  1  0  0  0  0
  6  7  1  0  0  0  0
  6 34  1  0  0  0  0
  6 35  1  0  0  0  0
  7  8  1  0  0  0  0
  7 36  1  0  0  0  0
  7 37  1  0  0  0  0
  8  9  1  1  0  0  0
  8 15  1  0  0  0  0
  8 10  1  0  0  0  0
 10 11  1  1  0  0  0
 10 29  1  0  0  0  0
 11 12  1  0  0  0  0
 11 38  1  0  0  0  0
 11 39  1  0  0  0  0
 12 13  1  0  0  0  0
 12 40  1  0  0  0  0
 12 41  1  0  0  0  0
 13 14  1  1  0  0  0
 13 20  1  0  0  0  0
 13 15  1  0  0  0  0
 15 16  1  6  0  0  0
 15 17  1  0  0  0  0
 17 18  1  0  0  0  0
 17 42  1  0  0  0  0
 17 43  1  0  0  0  0
 18 19  2  0  0  0  0
 18 44  1  0  0  0  0
 19 25  1  0  0  0  0
 19 20  1  0  0  0  0
 20 21  1  0  0  0  0
 20 28  1  6  0  0  0
 21 22  1  0  0  0  0
 21 45  1  0  0  0  0
 21 46  1  0  0  0  0
 22 23  1  0  0  0  0
 22 47  1  0  0  0  0
 22 48  1  0  0  0  0
 23 24  1  1  0  0  0
 23 25  1  0  0  0  0
 23 65  1  0  0  0  0
 25 49  1  0  0  0  0
 25 50  1  0  0  0  0
 26 51  1  0  0  0  0
 26 52  1  0  0  0  0
 26 53  1  0  0  0  0
 26 65  1  0  0  0  0
 27 54  1  0  0  0  0
 27 55  1  0  0  0  0
 27 56  1  0  0  0  0
 27 65  1  0  0  0  0
 28 57  1  0  0  0  0
 28 58  1  0  0  0  0
 28 59  1  0  0  0  0
 29 60  1  0  0  0  0
 29 61  1  0  0  0  0
 29 67  1  0  0  0  0
 30 62  1  0  0  0  0
 30 63  1  0  0  0  0
 30 64  1  0  0  0  0
 30 67  1  0  0  0  0
 65 66  1  0  0  0  0
 67 68  1  6  0  0  0
M  CHG  2  65   1  67   1
M  END
>  <cansmi>
C[NH+]([C@H]1CC[C@]2(C(=CC[C@@H]3[C@@H]2CC[C@@]24[C@H]3CC[C@H]4[C@@H]([N@H+](C2)C)C)C1)C)C

>  <HBA2>
0

>  <HBD>
2

>  <logP>
3.5446

>  <TPSA>
8.88

>  <MW>
358.604

$$$$
ZINC04349857
 OpenBabel02121623173D

 62 64  0  0  1  0  0  0  0  0999 V2000
   -2.4928    5.9573    6.1221 C   0  0  0  0  0  0  0  0  0  0  0  0
   -1.7845    5.5291    4.8628 C   0  0  0  0  0  0  0  0  0  0  0  0
   -0.6037    5.2743    4.8906 O   0  0  0  0  0  0  0  0  0  0  0  0
   -2.4653    5.4309    3.7101 O   0  0  0  0  0  0  0  0  0  0  0  0
   -1.7180    5.0124    2.5359 C   0  0  2  0  0  0  0  0  0  0  0  0
   -0.6742    5.3219    2.6615 H   0  0  0  0  0  0  0  0  0  0  0  0
   -2.2876    5.6892    1.2966 C   0  0  2  0  0  0  0  0  0  0  0  0
   -1.9441    6.7525    1.3779 H   0  0  0  0  0  0  0  0  0  0  0  0
   -3.8014    5.7218    1.3112 C   0  0  0  0  0  0  0  0  0  0  0  0
   -4.3650    6.5393    0.1515 C   0  0  1  0  0  0  0  0  0  0  0  0
   -3.8908    5.9825   -1.1868 C   0  0  0  0  0  0  0  0  0  0  0  0
   -2.4094    5.7305   -1.1893 C   0  0  0  0  0  0  0  0  0  0  0  0
   -1.7661    5.9980   -2.1931 O   0  0  0  0  0  0  0  0  0  0  0  0
   -1.6837    5.1623    0.0079 C   0  0  2  0  0  0  0  0  0  0  0  0
   -1.6481    3.6339   -0.0838 C   0  0  1  0  0  0  0  0  0  0  0  0
   -0.8049    3.2275   -1.3032 C   0  0  2  0  0  0  0  0  0  0  0  0
   -1.2638    3.6264   -2.2060 H   0  0  0  0  0  0  0  0  0  0  0  0
   -0.7487    1.7005   -1.3904 C   0  0  0  0  0  0  0  0  0  0  0  0
   -0.0260    1.1527   -0.1659 C   0  0  0  0  0  0  0  0  0  0  0  0
   -0.7094    1.5741    1.1364 C   0  0  0  0  0  0  0  0  0  0  0  0
   -1.0199    3.0544    1.1719 C   0  0  2  0  0  0  0  0  0  0  0  0
   -0.0141    3.5601    1.2525 H   0  0  0  0  0  0  0  0  0  0  0  0
   -1.7645    3.4867    2.4276 C   0  0  2  0  0  0  0  0  0  0  0  0
   -1.2469    3.0864    3.3142 H   0  0  0  0  0  0  0  0  0  0  0  0
   -3.1140    3.0437    2.4761 O   0  0  0  0  0  0  0  0  0  0  0  0
    0.2988    1.2658    2.2716 C   0  0  0  0  0  0  0  0  0  0  0  0
   -1.9321    0.6887    1.3731 C   0  0  0  0  0  0  0  0  0  0  0  0
    0.5298    3.7190   -1.1818 O   0  0  0  0  0  0  0  0  0  0  0  0
   -3.0646    3.1054   -0.3213 C   0  0  0  0  0  0  0  0  0  0  0  0
   -0.3235    5.6589   -0.0444 O   0  0  0  0  0  0  0  0  0  0  0  0
   -5.9001    6.4646    0.2013 C   0  0  0  0  0  0  0  0  0  0  0  0
   -3.9561    7.9844    0.2806 C   0  0  0  0  0  0  0  0  0  0  0  0
   -3.2916    8.5660   -0.6870 C   0  0  0  0  0  0  0  0  0  0  0  0
   -2.8805    5.0786    6.6376 H   0  0  0  0  0  0  0  0  0  0  0  0
   -1.7923    6.4807    6.7729 H   0  0  0  0  0  0  0  0  0  0  0  0
   -3.3178    6.6222    5.8668 H   0  0  0  0  0  0  0  0  0  0  0  0
   -4.2266    4.7219    1.2972 H   0  0  0  0  0  0  0  0  0  0  0  0
   -4.1377    6.1960    2.2489 H   0  0  0  0  0  0  0  0  0  0  0  0
   -4.0736    6.6496   -1.9090 H   0  0  0  0  0  0  0  0  0  0  0  0
   -4.4412    5.0725   -1.4280 H   0  0  0  0  0  0  0  0  0  0  0  0
   -0.1727    1.4298   -2.2874 H   0  0  0  0  0  0  0  0  0  0  0  0
   -1.7351    1.2673   -1.4876 H   0  0  0  0  0  0  0  0  0  0  0  0
   -0.0107    0.0587   -0.2169 H   0  0  0  0  0  0  0  0  0  0  0  0
    1.0074    1.5078   -0.1594 H   0  0  0  0  0  0  0  0  0  0  0  0
   -3.5893    3.3169    3.2726 H   0  0  0  0  0  0  0  0  0  0  0  0
    1.2150    1.8330    2.1079 H   0  0  0  0  0  0  0  0  0  0  0  0
   -0.1365    1.5474    3.2305 H   0  0  0  0  0  0  0  0  0  0  0  0
    0.5271    0.1999    2.2753 H   0  0  0  0  0  0  0  0  0  0  0  0
   -1.6106   -0.3418    1.5245 H   0  0  0  0  0  0  0  0  0  0  0  0
   -2.4666    1.0362    2.2572 H   0  0  0  0  0  0  0  0  0  0  0  0
   -2.5911    0.7401    0.5065 H   0  0  0  0  0  0  0  0  0  0  0  0
    1.1038    3.4860   -1.9244 H   0  0  0  0  0  0  0  0  0  0  0  0
   -3.0301    2.0255   -0.4653 H   0  0  0  0  0  0  0  0  0  0  0  0
   -3.6884    3.3370    0.5421 H   0  0  0  0  0  0  0  0  0  0  0  0
   -3.4843    3.5771   -1.2098 H   0  0  0  0  0  0  0  0  0  0  0  0
   -0.2541    6.6219    0.0079 H   0  0  0  0  0  0  0  0  0  0  0  0
   -6.2169    5.4267    0.0994 H   0  0  0  0  0  0  0  0  0  0  0  0
   -6.2524    6.8601    1.1540 H   0  0  0  0  0  0  0  0  0  0  0  0
   -6.3193    7.0542   -0.6141 H   0  0  0  0  0  0  0  0  0  0  0  0
   -4.2109    8.5402    1.1708 H   0  0  0  0  0  0  0  0  0  0  0  0
   -3.0368    8.0102   -1.5773 H   0  0  0  0  0  0  0  0  0  0  0  0
   -2.9986    9.6014   -0.5945 H   0  0  0  0  0  0  0  0  0  0  0  0
  1  2  1  0  0  0  0
  1 34  1  0  0  0  0
  1 35  1  0  0  0  0
  1 36  1  0  0  0  0
  2  3  2  0  0  0  0
  2  4  1  0  0  0  0
  4  5  1  0  0  0  0
  5  6  1  1  0  0  0
  5 23  1  0  0  0  0
  5  7  1  0  0  0  0
  7  8  1  1  0  0  0
  7 14  1  0  0  0  0
  7  9  1  0  0  0  0
  9 10  1  0  0  0  0
  9 37  1  0  0  0  0
  9 38  1  0  0  0  0
 10 11  1  0  0  0  0
 10 31  1  1  0  0  0
 10 32  1  0  0  0  0
 11 12  1  0  0  0  0
 11 39  1  0  0  0  0
 11 40  1  0  0  0  0
 12 13  2  0  0  0  0
 12 14  1  0  0  0  0
 14 15  1  0  0  0  0
 14 30  1  6  0  0  0
 15 21  1  0  0  0  0
 15 16  1  0  0  0  0
 15 29  1  6  0  0  0
 16 17  1  6  0  0  0
 16 18  1  0  0  0  0
 16 28  1  0  0  0  0
 18 19  1  0  0  0  0
 18 41  1  0  0  0  0
 18 42  1  0  0  0  0
 19 20  1  0  0  0  0
 19 43  1  0  0  0  0
 19 44  1  0  0  0  0
 20 21  1  0  0  0  0
 20 26  1  0  0  0  0
 20 27  1  0  0  0  0
 21 22  1  1  0  0  0
 21 23  1  0  0  0  0
 23 24  1  1  0  0  0
 23 25  1  0  0  0  0
 25 45  1  0  0  0  0
 26 46  1  0  0  0  0
 26 47  1  0  0  0  0
 26 48  1  0  0  0  0
 27 49  1  0  0  0  0
 27 50  1  0  0  0  0
 27 51  1  0  0  0  0
 28 52  1  0  0  0  0
 29 53  1  0  0  0  0
 29 54  1  0  0  0  0
 29 55  1  0  0  0  0
 30 56  1  0  0  0  0
 31 57  1  0  0  0  0
 31 58  1  0  0  0  0
 31 59  1  0  0  0  0
 32 33  2  0  0  0  0
 32 60  1  0  0  0  0
 33 61  1  0  0  0  0
 33 62  1  0  0  0  0
M  END
>  <cansmi>
C=C[C@@]1(C)CC(=O)[C@]2([C@@H](C1)[C@@H](OC(=O)C)[C@H]([C@@H]1[C@]2(C)[C@@H](O)CCC1(C)C)O)O

>  <HBA2>
6

>  <HBD>
3

>  <logP>
1.9985

>  <TPSA>
104.06

>  <MW>
394.502

$$$$
ZINC04349859
 OpenBabel02121623173D

 62 64  0  0  1  0  0  0  0  0999 V2000
   -6.0378    2.2093    3.3507 C   0  0  0  0  0  0  0  0  0  0  0  0
   -5.2078    1.7152    2.1940 C   0  0  0  0  0  0  0  0  0  0  0  0
   -4.9193    2.4666    1.2929 O   0  0  0  0  0  0  0  0  0  0  0  0
   -4.7888    0.4403    2.1649 O   0  0  0  0  0  0  0  0  0  0  0  0
   -3.9936    0.0339    1.0204 C   0  0  2  0  0  0  0  0  0  0  0  0
   -4.2784    0.6206    0.1494 H   0  0  0  0  0  0  0  0  0  0  0  0
   -4.2268   -1.4537    0.7389 C   0  0  1  0  0  0  0  0  0  0  0  0
   -3.9293   -2.0244    1.6137 H   0  0  0  0  0  0  0  0  0  0  0  0
   -5.7095   -1.6921    0.4613 C   0  0  0  0  0  0  0  0  0  0  0  0
   -5.9948   -3.1625    0.1674 C   0  0  1  0  0  0  0  0  0  0  0  0
   -5.1958   -3.6275   -1.0510 C   0  0  0  0  0  0  0  0  0  0  0  0
   -3.7321   -3.2821   -0.8485 C   0  0  0  0  0  0  0  0  0  0  0  0
   -2.8953   -4.1393   -0.9983 O   0  0  0  0  0  0  0  0  0  0  0  0
   -3.3979   -1.8585   -0.4850 C   0  0  2  0  0  0  0  0  0  0  0  0
   -1.9058   -1.6750   -0.1834 C   0  0  1  0  0  0  0  0  0  0  0  0
   -1.0868   -2.0665   -1.4173 C   0  0  2  0  0  0  0  0  0  0  0  0
   -1.2202   -3.1284   -1.6247 H   0  0  0  0  0  0  0  0  0  0  0  0
    0.3965   -1.7954   -1.1581 C   0  0  0  0  0  0  0  0  0  0  0  0
    0.6094   -0.3023   -0.9416 C   0  0  0  0  0  0  0  0  0  0  0  0
   -0.2139    0.2174    0.2398 C   0  0  0  0  0  0  0  0  0  0  0  0
   -1.6629   -0.2104    0.1542 C   0  0  2  0  0  0  0  0  0  0  0  0
   -2.0739    0.3590   -0.7295 H   0  0  0  0  0  0  0  0  0  0  0  0
   -2.5066    0.2625    1.3292 C   0  0  2  0  0  0  0  0  0  0  0  0
   -2.3691    1.3433    1.4702 H   0  0  0  0  0  0  0  0  0  0  0  0
   -2.1839   -0.3876    2.5532 O   0  0  0  0  0  0  0  0  0  0  0  0
   -0.1586    1.7626    0.1592 C   0  0  0  0  0  0  0  0  0  0  0  0
    0.4670   -0.1901    1.5449 C   0  0  0  0  0  0  0  0  0  0  0  0
   -1.5021   -1.3083   -2.5541 O   0  0  0  0  0  0  0  0  0  0  0  0
   -1.5166   -2.6053    0.9692 C   0  0  0  0  0  0  0  0  0  0  0  0
   -3.7717   -1.0068   -1.5778 O   0  0  0  0  0  0  0  0  0  0  0  0
   -5.6406   -4.0263    1.3785 C   0  0  0  0  0  0  0  0  0  0  0  0
   -7.4695   -3.3251   -0.1276 C   0  0  0  0  0  0  0  0  0  0  0  0
   -7.8576   -3.7951   -1.2871 C   0  0  0  0  0  0  0  0  0  0  0  0
   -5.3813    2.5985    4.1289 H   0  0  0  0  0  0  0  0  0  0  0  0
   -6.7040    3.0010    3.0078 H   0  0  0  0  0  0  0  0  0  0  0  0
   -6.6285    1.3858    3.7519 H   0  0  0  0  0  0  0  0  0  0  0  0
   -6.2912   -1.3805    1.3334 H   0  0  0  0  0  0  0  0  0  0  0  0
   -6.0165   -1.0852   -0.3941 H   0  0  0  0  0  0  0  0  0  0  0  0
   -5.2964   -4.6167   -1.1579 H   0  0  0  0  0  0  0  0  0  0  0  0
   -5.5658   -3.1274   -1.9458 H   0  0  0  0  0  0  0  0  0  0  0  0
    0.9652   -2.1088   -2.0441 H   0  0  0  0  0  0  0  0  0  0  0  0
    0.7562   -2.3654   -0.3092 H   0  0  0  0  0  0  0  0  0  0  0  0
    0.3285    0.2455   -1.8434 H   0  0  0  0  0  0  0  0  0  0  0  0
    1.6694   -0.1148   -0.7411 H   0  0  0  0  0  0  0  0  0  0  0  0
   -2.6903   -0.0693    3.3130 H   0  0  0  0  0  0  0  0  0  0  0  0
    0.8811    2.0899    0.1682 H   0  0  0  0  0  0  0  0  0  0  0  0
   -0.6364    2.0957   -0.7622 H   0  0  0  0  0  0  0  0  0  0  0  0
   -0.6815    2.1900    1.0147 H   0  0  0  0  0  0  0  0  0  0  0  0
   -0.1196    0.1719    2.3893 H   0  0  0  0  0  0  0  0  0  0  0  0
    0.5403   -1.2766    1.5926 H   0  0  0  0  0  0  0  0  0  0  0  0
    1.4663    0.2435    1.5842 H   0  0  0  0  0  0  0  0  0  0  0  0
   -1.0211   -1.5208   -3.3657 H   0  0  0  0  0  0  0  0  0  0  0  0
   -0.4422   -2.5407    1.1414 H   0  0  0  0  0  0  0  0  0  0  0  0
   -2.0479   -2.3063    1.8728 H   0  0  0  0  0  0  0  0  0  0  0  0
   -1.7826   -3.6311    0.7139 H   0  0  0  0  0  0  0  0  0  0  0  0
   -4.7045   -1.0702   -1.8245 H   0  0  0  0  0  0  0  0  0  0  0  0
   -6.2374   -3.7132    2.2351 H   0  0  0  0  0  0  0  0  0  0  0  0
   -5.8498   -5.0720    1.1526 H   0  0  0  0  0  0  0  0  0  0  0  0
   -4.5821   -3.9096    1.6109 H   0  0  0  0  0  0  0  0  0  0  0  0
   -8.2024   -3.0537    0.6178 H   0  0  0  0  0  0  0  0  0  0  0  0
   -7.1246   -4.0665   -2.0325 H   0  0  0  0  0  0  0  0  0  0  0  0
   -8.9104   -3.9113   -1.4977 H   0  0  0  0  0  0  0  0  0  0  0  0
  1  2  1  0  0  0  0
  1 34  1  0  0  0  0
  1 35  1  0  0  0  0
  1 36  1  0  0  0  0
  2  3  2  0  0  0  0
  2  4  1  0  0  0  0
  4  5  1  0  0  0  0
  5  6  1  6  0  0  0
  5 23  1  0  0  0  0
  5  7  1  0  0  0  0
  7  8  1  1  0  0  0
  7 14  1  0  0  0  0
  7  9  1  0  0  0  0
  9 10  1  0  0  0  0
  9 37  1  0  0  0  0
  9 38  1  0  0  0  0
 10 11  1  0  0  0  0
 10 31  1  1  0  0  0
 10 32  1  0  0  0  0
 11 12  1  0  0  0  0
 11 39  1  0  0  0  0
 11 40  1  0  0  0  0
 12 13  2  0  0  0  0
 12 14  1  0  0  0  0
 14 15  1  0  0  0  0
 14 30  1  6  0  0  0
 15 21  1  0  0  0  0
 15 16  1  0  0  0  0
 15 29  1  1  0  0  0
 16 17  1  6  0  0  0
 16 18  1  0  0  0  0
 16 28  1  0  0  0  0
 18 19  1  0  0  0  0
 18 41  1  0  0  0  0
 18 42  1  0  0  0  0
 19 20  1  0  0  0  0
 19 43  1  0  0  0  0
 19 44  1  0  0  0  0
 20 21  1  0  0  0  0
 20 26  1  0  0  0  0
 20 27  1  0  0  0  0
 21 22  1  6  0  0  0
 21 23  1  0  0  0  0
 23 24  1  1  0  0  0
 23 25  1  0  0  0  0
 25 45  1  0  0  0  0
 26 46  1  0  0  0  0
 26 47  1  0  0  0  0
 26 48  1  0  0  0  0
 27 49  1  0  0  0  0
 27 50  1  0  0  0  0
 27 51  1  0  0  0  0
 28 52  1  0  0  0  0
 29 53  1  0  0  0  0
 29 54  1  0  0  0  0
 29 55  1  0  0  0  0
 30 56  1  0  0  0  0
 31 57  1  0  0  0  0
 31 58  1  0  0  0  0
 31 59  1  0  0  0  0
 32 33  2  0  0  0  0
 32 60  1  0  0  0  0
 33 61  1  0  0  0  0
 33 62  1  0  0  0  0
M  END
>  <cansmi>
C=C[C@@]1(C)CC(=O)[C@]2([C@H](C1)[C@@H](OC(=O)C)[C@H]([C@@H]1[C@]2(C)[C@@H](O)CCC1(C)C)O)O

>  <HBA2>
6

>  <HBD>
3

>  <logP>
1.9985

>  <TPSA>
104.06

>  <MW>
394.502

$$$$
ZINC04349862
 OpenBabel02121623173D

 62 64  0  0  1  0  0  0  0  0999 V2000
    1.3724    0.2769   -1.8055 C   0  0  0  0  0  0  0  0  0  0  0  0
    1.0280    1.6764   -1.3653 C   0  0  0  0  0  0  0  0  0  0  0  0
    1.8921    2.5182   -1.2973 O   0  0  0  0  0  0  0  0  0  0  0  0
   -0.2397    1.9893   -1.0541 O   0  0  0  0  0  0  0  0  0  0  0  0
   -0.4981    3.3551   -0.6385 C   0  0  2  0  0  0  0  0  0  0  0  0
    0.4076    3.7340   -0.1401 H   0  0  0  0  0  0  0  0  0  0  0  0
   -1.6611    3.4385    0.3324 C   0  0  2  0  0  0  0  0  0  0  0  0
   -1.7579    4.4870    0.6685 H   0  0  0  0  0  0  0  0  0  0  0  0
   -1.4207    2.6027    1.5757 C   0  0  0  0  0  0  0  0  0  0  0  0
   -1.7001    1.1196    1.5272 C   0  0  1  0  0  0  0  0  0  0  0  0
   -2.7438    0.6498    0.5270 C   0  0  0  0  0  0  0  0  0  0  0  0
   -2.8018    1.5577   -0.6821 C   0  0  0  0  0  0  0  0  0  0  0  0
   -2.7076    1.1078   -1.7925 O   0  0  0  0  0  0  0  0  0  0  0  0
   -2.9466    3.0305   -0.3754 C   0  0  2  0  0  0  0  0  0  0  0  0
   -3.2196    3.8666   -1.6202 C   0  0  1  0  0  0  0  0  0  0  0  0
   -3.6486    5.2739   -1.1956 C   0  0  2  0  0  0  0  0  0  0  0  0
   -4.5185    5.2025   -0.5380 H   0  0  0  0  0  0  0  0  0  0  0  0
   -4.0321    6.0960   -2.4281 C   0  0  0  0  0  0  0  0  0  0  0  0
   -2.8033    6.2256   -3.3200 C   0  0  0  0  0  0  0  0  0  0  0  0
   -2.2817    4.8604   -3.7608 C   0  0  0  0  0  0  0  0  0  0  0  0
   -2.0508    3.9069   -2.5928 C   0  0  1  0  0  0  0  0  0  0  0  0
   -1.9588    2.8890   -3.0314 H   0  0  0  0  0  0  0  0  0  0  0  0
   -0.7290    4.2036   -1.8927 C   0  0  2  0  0  0  0  0  0  0  0  0
   -0.6582    5.2579   -1.6383 H   0  0  0  0  0  0  0  0  0  0  0  0
    0.3859    3.8550   -2.7410 O   0  0  0  0  0  0  0  0  0  0  0  0
   -0.9797    5.1297   -4.5441 C   0  0  0  0  0  0  0  0  0  0  0  0
   -3.2425    4.2592   -4.7996 C   0  0  0  0  0  0  0  0  0  0  0  0
   -2.5973    5.9527   -0.5121 O   0  0  0  0  0  0  0  0  0  0  0  0
   -4.4593    3.2068   -2.2692 C   0  0  0  0  0  0  0  0  0  0  0  0
   -4.0467    3.1920    0.5337 O   0  0  0  0  0  0  0  0  0  0  0  0
   -0.3917    0.3433    1.2999 C   0  0  0  0  0  0  0  0  0  0  0  0
   -2.1993    0.7084    2.9128 C   0  0  0  0  0  0  0  0  0  0  0  0
   -1.6083   -0.2654    3.5597 C   0  0  0  0  0  0  0  0  0  0  0  0
    1.6349   -0.3236   -0.9345 H   0  0  0  0  0  0  0  0  0  0  0  0
    0.5133   -0.1677   -2.3079 H   0  0  0  0  0  0  0  0  0  0  0  0
    2.2181    0.3098   -2.4924 H   0  0  0  0  0  0  0  0  0  0  0  0
   -0.3671    2.7470    1.8872 H   0  0  0  0  0  0  0  0  0  0  0  0
   -2.0163    3.0405    2.4019 H   0  0  0  0  0  0  0  0  0  0  0  0
   -2.5135   -0.2712    0.2128 H   0  0  0  0  0  0  0  0  0  0  0  0
   -3.7295    0.6270    1.0035 H   0  0  0  0  0  0  0  0  0  0  0  0
   -4.8624    5.6556   -2.9614 H   0  0  0  0  0  0  0  0  0  0  0  0
   -4.3327    7.0988   -2.0939 H   0  0  0  0  0  0  0  0  0  0  0  0
   -3.0625    6.8124   -4.2078 H   0  0  0  0  0  0  0  0  0  0  0  0
   -2.0138    6.7567   -2.7814 H   0  0  0  0  0  0  0  0  0  0  0  0
    1.2505    4.0501   -2.3542 H   0  0  0  0  0  0  0  0  0  0  0  0
   -0.2627    5.6327   -3.8952 H   0  0  0  0  0  0  0  0  0  0  0  0
   -0.5592    4.1840   -4.8861 H   0  0  0  0  0  0  0  0  0  0  0  0
   -1.1975    5.7627   -5.4043 H   0  0  0  0  0  0  0  0  0  0  0  0
   -3.1884    4.8375   -5.7220 H   0  0  0  0  0  0  0  0  0  0  0  0
   -2.9593    3.2261   -5.0013 H   0  0  0  0  0  0  0  0  0  0  0  0
   -4.2608    4.2878   -4.4120 H   0  0  0  0  0  0  0  0  0  0  0  0
   -2.8274    6.8473   -0.2260 H   0  0  0  0  0  0  0  0  0  0  0  0
   -5.1925    2.9730   -1.4972 H   0  0  0  0  0  0  0  0  0  0  0  0
   -4.8995    3.8933   -2.9923 H   0  0  0  0  0  0  0  0  0  0  0  0
   -4.1594    2.2892   -2.7753 H   0  0  0  0  0  0  0  0  0  0  0  0
   -3.9745    2.6588    1.3371 H   0  0  0  0  0  0  0  0  0  0  0  0
    0.3004    0.5507    2.1161 H   0  0  0  0  0  0  0  0  0  0  0  0
   -0.6042   -0.7253    1.2665 H   0  0  0  0  0  0  0  0  0  0  0  0
    0.0560    0.6543    0.3560 H   0  0  0  0  0  0  0  0  0  0  0  0
   -3.0392    1.2209    3.3582 H   0  0  0  0  0  0  0  0  0  0  0  0
   -0.7174   -0.7211    3.1533 H   0  0  0  0  0  0  0  0  0  0  0  0
   -2.0118   -0.6126    4.4994 H   0  0  0  0  0  0  0  0  0  0  0  0
  1  2  1  0  0  0  0
  1 34  1  0  0  0  0
  1 35  1  0  0  0  0
  1 36  1  0  0  0  0
  2  3  2  0  0  0  0
  2  4  1  0  0  0  0
  4  5  1  0  0  0  0
  5  6  1  1  0  0  0
  5 23  1  0  0  0  0
  5  7  1  0  0  0  0
  7  8  1  1  0  0  0
  7 14  1  0  0  0  0
  7  9  1  0  0  0  0
  9 10  1  0  0  0  0
  9 37  1  0  0  0  0
  9 38  1  0  0  0  0
 10 11  1  0  0  0  0
 10 31  1  6  0  0  0
 10 32  1  0  0  0  0
 11 12  1  0  0  0  0
 11 39  1  0  0  0  0
 11 40  1  0  0  0  0
 12 13  2  0  0  0  0
 12 14  1  0  0  0  0
 14 15  1  0  0  0  0
 14 30  1  1  0  0  0
 15 21  1  0  0  0  0
 15 16  1  0  0  0  0
 15 29  1  6  0  0  0
 16 17  1  1  0  0  0
 16 18  1  0  0  0  0
 16 28  1  0  0  0  0
 18 19  1  0  0  0  0
 18 41  1  0  0  0  0
 18 42  1  0  0  0  0
 19 20  1  0  0  0  0
 19 43  1  0  0  0  0
 19 44  1  0  0  0  0
 20 21  1  0  0  0  0
 20 26  1  0  0  0  0
 20 27  1  0  0  0  0
 21 22  1  6  0  0  0
 21 23  1  0  0  0  0
 23 24  1  1  0  0  0
 23 25  1  0  0  0  0
 25 45  1  0  0  0  0
 26 46  1  0  0  0  0
 26 47  1  0  0  0  0
 26 48  1  0  0  0  0
 27 49  1  0  0  0  0
 27 50  1  0  0  0  0
 27 51  1  0  0  0  0
 28 52  1  0  0  0  0
 29 53  1  0  0  0  0
 29 54  1  0  0  0  0
 29 55  1  0  0  0  0
 30 56  1  0  0  0  0
 31 57  1  0  0  0  0
 31 58  1  0  0  0  0
 31 59  1  0  0  0  0
 32 33  2  0  0  0  0
 32 60  1  0  0  0  0
 33 61  1  0  0  0  0
 33 62  1  0  0  0  0
M  END
>  <cansmi>
C=C[C@@]1(C)CC(=O)[C@]2([C@@H](C1)[C@@H](OC(=O)C)[C@H]([C@H]1[C@]2(C)[C@@H](O)CCC1(C)C)O)O

>  <HBA2>
6

>  <HBD>
3

>  <logP>
1.9985

>  <TPSA>
104.06

>  <MW>
394.502

$$$$
ZINC04349863
 OpenBabel02121623173D

 62 64  0  0  1  0  0  0  0  0999 V2000
    0.0021   -0.0041    0.0020 C   0  0  0  0  0  0  0  0  0  0  0  0
   -0.0184    1.5028    0.0103 C   0  0  0  0  0  0  0  0  0  0  0  0
   -1.0728    2.0926    0.0185 O   0  0  0  0  0  0  0  0  0  0  0  0
    1.1348    2.1897    0.0030 O   0  0  0  0  0  0  0  0  0  0  0  0
    1.0386    3.6473    0.0117 C   0  0  2  0  0  0  0  0  0  0  0  0
    0.1148    3.9184   -0.4972 H   0  0  0  0  0  0  0  0  0  0  0  0
    2.2275    4.2163   -0.7576 C   0  0  1  0  0  0  0  0  0  0  0  0
    3.1485    3.8448   -0.3150 H   0  0  0  0  0  0  0  0  0  0  0  0
    2.1400    3.7482   -2.2113 C   0  0  0  0  0  0  0  0  0  0  0  0
    3.2957    4.2639   -3.0610 C   0  0  1  0  0  0  0  0  0  0  0  0
    3.3663    5.7926   -2.9968 C   0  0  0  0  0  0  0  0  0  0  0  0
    3.4024    6.1885   -1.5258 C   0  0  0  0  0  0  0  0  0  0  0  0
    4.3569    6.7794   -1.1075 O   0  0  0  0  0  0  0  0  0  0  0  0
    2.2010    5.7512   -0.7094 C   0  0  2  0  0  0  0  0  0  0  0  0
    2.2126    6.2630    0.7136 C   0  0  1  0  0  0  0  0  0  0  0  0
    2.1625    7.7878    0.7893 C   0  0  2  0  0  0  0  0  0  0  0  0
    2.4688    8.0808    1.8093 H   0  0  0  0  0  0  0  0  0  0  0  0
    0.7537    8.3241    0.5544 C   0  0  0  0  0  0  0  0  0  0  0  0
   -0.1359    7.8298    1.6910 C   0  0  0  0  0  0  0  0  0  0  0  0
   -0.2128    6.3027    1.6648 C   0  0  0  0  0  0  0  0  0  0  0  0
    1.1440    5.6393    1.5984 C   0  0  1  0  0  0  0  0  0  0  0  0
    1.5622    5.7759    2.6474 H   0  0  0  0  0  0  0  0  0  0  0  0
    1.0377    4.1293    1.4540 C   0  0  2  0  0  0  0  0  0  0  0  0
    0.1027    3.7787    1.9226 H   0  0  0  0  0  0  0  0  0  0  0  0
    2.1025    3.4888    2.1715 O   0  0  0  0  0  0  0  0  0  0  0  0
   -1.1464    5.8738    0.5330 C   0  0  0  0  0  0  0  0  0  0  0  0
   -0.8899    5.8871    2.9954 C   0  0  0  0  0  0  0  0  0  0  0  0
    3.0582    8.4084   -0.1255 O   0  0  0  0  0  0  0  0  0  0  0  0
    3.5731    5.8689    1.3604 C   0  0  0  0  0  0  0  0  0  0  0  0
    1.0278    6.2024   -1.4006 O   0  0  0  0  0  0  0  0  0  0  0  0
    4.6185    3.6681   -2.5754 C   0  0  0  0  0  0  0  0  0  0  0  0
    3.0747    3.8491   -4.4981 C   0  0  0  0  0  0  0  0  0  0  0  0
    2.9781    4.7594   -5.4352 C   0  0  0  0  0  0  0  0  0  0  0  0
    0.0168   -0.3729    1.0276 H   0  0  0  0  0  0  0  0  0  0  0  0
   -0.8878   -0.3767   -0.5053 H   0  0  0  0  0  0  0  0  0  0  0  0
    0.8920   -0.3525   -0.5222 H   0  0  0  0  0  0  0  0  0  0  0  0
    1.1932    4.0907   -2.6384 H   0  0  0  0  0  0  0  0  0  0  0  0
    2.1437    2.6532   -2.2285 H   0  0  0  0  0  0  0  0  0  0  0  0
    2.5654    6.1826   -3.4511 H   0  0  0  0  0  0  0  0  0  0  0  0
    4.2710    6.1436   -3.4866 H   0  0  0  0  0  0  0  0  0  0  0  0
    0.7838    9.4205    0.5787 H   0  0  0  0  0  0  0  0  0  0  0  0
    0.3676    8.0125   -0.4066 H   0  0  0  0  0  0  0  0  0  0  0  0
    0.2767    8.1549    2.6474 H   0  0  0  0  0  0  0  0  0  0  0  0
   -1.1391    8.2439    1.5765 H   0  0  0  0  0  0  0  0  0  0  0  0
    2.0382    2.5242    2.1923 H   0  0  0  0  0  0  0  0  0  0  0  0
   -1.3034    4.7962    0.5802 H   0  0  0  0  0  0  0  0  0  0  0  0
   -2.1033    6.3852    0.6378 H   0  0  0  0  0  0  0  0  0  0  0  0
   -0.6984    6.1341   -0.4259 H   0  0  0  0  0  0  0  0  0  0  0  0
   -0.2730    6.2109    3.8336 H   0  0  0  0  0  0  0  0  0  0  0  0
   -1.8720    6.3549    3.0650 H   0  0  0  0  0  0  0  0  0  0  0  0
   -1.0010    4.8031    3.0234 H   0  0  0  0  0  0  0  0  0  0  0  0
    3.0439    9.3749   -0.0955 H   0  0  0  0  0  0  0  0  0  0  0  0
    3.6622    4.7829    1.3857 H   0  0  0  0  0  0  0  0  0  0  0  0
    4.3898    6.2869    0.7718 H   0  0  0  0  0  0  0  0  0  0  0  0
    3.6195    6.2611    2.3763 H   0  0  0  0  0  0  0  0  0  0  0  0
    0.9717    5.9016   -2.3179 H   0  0  0  0  0  0  0  0  0  0  0  0
    4.8013    3.9793   -1.5469 H   0  0  0  0  0  0  0  0  0  0  0  0
    4.5659    2.5803   -2.6220 H   0  0  0  0  0  0  0  0  0  0  0  0
    5.4307    4.0201   -3.2114 H   0  0  0  0  0  0  0  0  0  0  0  0
    2.9965    2.8023   -4.7521 H   0  0  0  0  0  0  0  0  0  0  0  0
    3.0562    5.8062   -5.1812 H   0  0  0  0  0  0  0  0  0  0  0  0
    2.8202    4.4631   -6.4617 H   0  0  0  0  0  0  0  0  0  0  0  0
  1  2  1  0  0  0  0
  1 34  1  0  0  0  0
  1 35  1  0  0  0  0
  1 36  1  0  0  0  0
  2  3  2  0  0  0  0
  2  4  1  0  0  0  0
  4  5  1  0  0  0  0
  5  6  1  6  0  0  0
  5 23  1  0  0  0  0
  5  7  1  0  0  0  0
  7  8  1  1  0  0  0
  7 14  1  0  0  0  0
  7  9  1  0  0  0  0
  9 10  1  0  0  0  0
  9 37  1  0  0  0  0
  9 38  1  0  0  0  0
 10 11  1  0  0  0  0
 10 31  1  1  0  0  0
 10 32  1  0  0  0  0
 11 12  1  0  0  0  0
 11 39  1  0  0  0  0
 11 40  1  0  0  0  0
 12 13  2  0  0  0  0
 12 14  1  0  0  0  0
 14 15  1  0  0  0  0
 14 30  1  6  0  0  0
 15 21  1  0  0  0  0
 15 16  1  0  0  0  0
 15 29  1  1  0  0  0
 16 17  1  1  0  0  0
 16 18  1  0  0  0  0
 16 28  1  0  0  0  0
 18 19  1  0  0  0  0
 18 41  1  0  0  0  0
 18 42  1  0  0  0  0
 19 20  1  0  0  0  0
 19 43  1  0  0  0  0
 19 44  1  0  0  0  0
 20 21  1  0  0  0  0
 20 26  1  0  0  0  0
 20 27  1  0  0  0  0
 21 22  1  1  0  0  0
 21 23  1  0  0  0  0
 23 24  1  1  0  0  0
 23 25  1  0  0  0  0
 25 45  1  0  0  0  0
 26 46  1  0  0  0  0
 26 47  1  0  0  0  0
 26 48  1  0  0  0  0
 27 49  1  0  0  0  0
 27 50  1  0  0  0  0
 27 51  1  0  0  0  0
 28 52  1  0  0  0  0
 29 53  1  0  0  0  0
 29 54  1  0  0  0  0
 29 55  1  0  0  0  0
 30 56  1  0  0  0  0
 31 57  1  0  0  0  0
 31 58  1  0  0  0  0
 31 59  1  0  0  0  0
 32 33  2  0  0  0  0
 32 60  1  0  0  0  0
 33 61  1  0  0  0  0
 33 62  1  0  0  0  0
M  END
>  <cansmi>
C=C[C@@]1(C)CC(=O)[C@]2([C@H](C1)[C@@H](OC(=O)C)[C@H]([C@H]1[C@]2(C)[C@@H](O)CCC1(C)C)O)O

>  <HBA2>
6

>  <HBD>
3

>  <logP>
1.9985

>  <TPSA>
104.06

>  <MW>
394.502

$$$$
ZINC04349869
 OpenBabel02121623173D

 26 26  0  0  1  0  0  0  0  0999 V2000
    2.1886    5.3727   -1.5592 C   0  0  0  0  0  0  0  0  0  0  0  0
    0.7199    5.6887   -1.3371 C   0  0  0  0  0  0  0  0  0  0  0  0
    0.4266    5.8414    0.1281 C   0  0  0  0  0  0  0  0  0  0  0  0
    0.8256    6.8335    0.7027 O   0  0  0  0  0  0  0  0  0  0  0  0
   -0.3652    4.8100    0.8870 C   0  0  0  0  0  0  0  0  0  0  0  0
    0.5382    3.6215    1.2528 C   0  0  1  0  0  0  0  0  0  0  0  0
    1.2353    3.1031    0.0069 C   0  0  1  0  0  0  0  0  0  0  0  0
    0.7091    3.4529   -0.8875 H   0  0  0  0  0  0  0  0  0  0  0  0
    2.6147    3.4767   -0.1237 O   0  0  0  0  0  0  0  0  0  0  0  0
    2.8038    4.8956   -0.2320 C   0  0  0  0  0  0  0  0  0  0  0  0
    1.1765    1.5884   -0.0006 C   0  0  0  0  0  0  0  0  0  0  0  0
    2.1986    0.9442   -0.0139 O   0  0  0  0  0  0  0  0  0  0  0  0
    1.4907    3.9664    2.3608 C   0  0  0  0  0  0  0  0  0  0  0  0
    2.6346    4.2593    2.1048 O   0  0  0  0  0  0  0  0  0  0  0  0
   -0.3245    2.5666    1.7461 O   0  0  0  0  0  0  0  0  0  0  0  0
    2.7210    6.2631   -1.9055 H   0  0  0  0  0  0  0  0  0  0  0  0
    2.2979    4.5856   -2.3112 H   0  0  0  0  0  0  0  0  0  0  0  0
    0.4906    6.5471   -1.7959 H   0  0  0  0  0  0  0  0  0  0  0  0
    0.0921    4.8993   -1.7492 H   0  0  0  0  0  0  0  0  0  0  0  0
   -0.7232    5.2167    1.7275 H   0  0  0  0  0  0  0  0  0  0  0  0
   -1.2038    4.4599    0.2754 H   0  0  0  0  0  0  0  0  0  0  0  0
    2.4228    5.4474    0.6030 H   0  0  0  0  0  0  0  0  0  0  0  0
    3.8923    5.0772   -0.2826 H   0  0  0  0  0  0  0  0  0  0  0  0
   -0.8164    2.8020    2.5447 H   0  0  0  0  0  0  0  0  0  0  0  0
   -0.0110    0.9628    0.0073 O   0  5  0  0  0  0  0  0  0  0  0  0
    1.0714    3.9494    3.6358 O   0  5  0  0  0  0  0  0  0  0  0  0
  1 10  1  0  0  0  0
  1  2  1  0  0  0  0
  1 16  1  0  0  0  0
  1 17  1  0  0  0  0
  2  3  1  0  0  0  0
  2 18  1  0  0  0  0
  2 19  1  0  0  0  0
  3  4  2  0  0  0  0
  3  5  1  0  0  0  0
  5  6  1  0  0  0  0
  5 20  1  0  0  0  0
  5 21  1  0  0  0  0
  6  7  1  0  0  0  0
  6 13  1  1  0  0  0
  6 15  1  0  0  0  0
  7  8  1  6  0  0  0
  7  9  1  0  0  0  0
  7 11  1  0  0  0  0
  9 10  1  0  0  0  0
 10 22  1  0  0  0  0
 10 23  1  0  0  0  0
 11 12  2  0  0  0  0
 11 25  1  0  0  0  0
 13 14  2  0  0  0  0
 13 26  1  0  0  0  0
 15 24  1  0  0  0  0
M  CHG  2  25  -1  26  -1
M  END
>  <cansmi>
O=C1CCCO[C@H]([C@@](C1)(O)C(=O)[O-])C(=O)[O-]

>  <HBA2>
7

>  <HBD>
1

>  <logP>
-3.6445

>  <TPSA>
126.79

>  <MW>
230.171

$$$$
ZINC04349874
 OpenBabel02121623173D

 26 26  0  0  1  0  0  0  0  0999 V2000
    2.1945   -0.4290   -1.1382 C   0  0  0  0  0  0  0  0  0  0  0  0
    0.9506   -0.9631   -1.8354 C   0  0  0  0  0  0  0  0  0  0  0  0
    0.3077    0.0992   -2.6772 C   0  0  0  0  0  0  0  0  0  0  0  0
    0.8427    0.4462   -3.7067 O   0  0  0  0  0  0  0  0  0  0  0  0
   -0.9999    0.7291   -2.2626 C   0  0  0  0  0  0  0  0  0  0  0  0
   -0.6966    1.8331   -1.2330 C   0  0  2  0  0  0  0  0  0  0  0  0
   -0.0381    1.1958   -0.0126 C   0  0  1  0  0  0  0  0  0  0  0  0
   -0.1661    0.1115   -0.0470 H   0  0  0  0  0  0  0  0  0  0  0  0
    1.3575    1.4851    0.0852 O   0  0  0  0  0  0  0  0  0  0  0  0
    2.1180    1.1057   -1.0690 C   0  0  0  0  0  0  0  0  0  0  0  0
   -0.7128    1.7083    1.2405 C   0  0  0  0  0  0  0  0  0  0  0  0
   -0.1266    2.4680    1.9748 O   0  0  0  0  0  0  0  0  0  0  0  0
   -2.0113    2.4596   -0.8050 C   0  0  0  0  0  0  0  0  0  0  0  0
   -3.0405    1.8356   -0.9107 O   0  0  0  0  0  0  0  0  0  0  0  0
    0.1191    2.8521   -1.8037 O   0  0  0  0  0  0  0  0  0  0  0  0
    3.0904   -0.7224   -1.6929 H   0  0  0  0  0  0  0  0  0  0  0  0
    2.2607   -0.8348   -0.1249 H   0  0  0  0  0  0  0  0  0  0  0  0
    1.2041   -1.7239   -2.4328 H   0  0  0  0  0  0  0  0  0  0  0  0
    0.2326   -1.3234   -1.0986 H   0  0  0  0  0  0  0  0  0  0  0  0
   -1.4500    1.1214   -3.0648 H   0  0  0  0  0  0  0  0  0  0  0  0
   -1.6535   -0.0240   -1.8167 H   0  0  0  0  0  0  0  0  0  0  0  0
    1.7203    1.5168   -1.9805 H   0  0  0  0  0  0  0  0  0  0  0  0
    3.1408    1.4935   -0.9398 H   0  0  0  0  0  0  0  0  0  0  0  0
   -0.2691    3.2776   -2.5805 H   0  0  0  0  0  0  0  0  0  0  0  0
   -1.9629    1.3192    1.5367 O   0  5  0  0  0  0  0  0  0  0  0  0
   -2.0304    3.7067   -0.3091 O   0  5  0  0  0  0  0  0  0  0  0  0
  1 10  1  0  0  0  0
  1  2  1  0  0  0  0
  1 16  1  0  0  0  0
  1 17  1  0  0  0  0
  2  3  1  0  0  0  0
  2 18  1  0  0  0  0
  2 19  1  0  0  0  0
  3  4  2  0  0  0  0
  3  5  1  0  0  0  0
  5  6  1  0  0  0  0
  5 20  1  0  0  0  0
  5 21  1  0  0  0  0
  6  7  1  0  0  0  0
  6 13  1  1  0  0  0
  6 15  1  0  0  0  0
  7  8  1  6  0  0  0
  7  9  1  0  0  0  0
  7 11  1  0  0  0  0
  9 10  1  0  0  0  0
 10 22  1  0  0  0  0
 10 23  1  0  0  0  0
 11 12  2  0  0  0  0
 11 25  1  0  0  0  0
 13 14  2  0  0  0  0
 13 26  1  0  0  0  0
 15 24  1  0  0  0  0
M  CHG  2  25  -1  26  -1
M  END
>  <cansmi>
O=C1CCCO[C@H]([C@](C1)(O)C(=O)[O-])C(=O)[O-]

>  <HBA2>
7

>  <HBD>
1

>  <logP>
-3.6445

>  <TPSA>
126.79

>  <MW>
230.171

$$$$
ZINC04349876
 OpenBabel02121623173D

 26 26  0  0  1  0  0  0  0  0999 V2000
    4.9857    2.6373    0.3617 C   0  0  0  0  0  0  0  0  0  0  0  0
    3.9919    2.4614    1.5250 C   0  0  0  0  0  0  0  0  0  0  0  0
    2.7987    3.3533    1.2922 C   0  0  0  0  0  0  0  0  0  0  0  0
    2.9345    4.5486    1.2577 O   0  0  0  0  0  0  0  0  0  0  0  0
    1.4357    2.7213    1.1074 C   0  0  0  0  0  0  0  0  0  0  0  0
    1.3460    2.1387   -0.3103 C   0  0  1  0  0  0  0  0  0  0  0  0
    2.4051    1.0462   -0.4748 C   0  0  2  0  0  0  0  0  0  0  0  0
    2.7103    0.6882    0.5125 H   0  0  0  0  0  0  0  0  0  0  0  0
    3.5219    1.4591   -1.2135 O   0  0  0  0  0  0  0  0  0  0  0  0
    4.1830    2.6768   -0.9499 C   0  0  0  0  0  0  0  0  0  0  0  0
    1.7625   -0.1315   -1.1866 C   0  0  0  0  0  0  0  0  0  0  0  0
    2.0238   -0.3528   -2.3453 O   0  0  0  0  0  0  0  0  0  0  0  0
   -0.0240    1.5062   -0.4825 C   0  0  0  0  0  0  0  0  0  0  0  0
   -0.6295    1.1043    0.4827 O   0  0  0  0  0  0  0  0  0  0  0  0
    1.4888    3.1597   -1.2939 O   0  0  0  0  0  0  0  0  0  0  0  0
    5.5329    3.5705    0.4900 H   0  0  0  0  0  0  0  0  0  0  0  0
    5.6795    1.7977    0.3472 H   0  0  0  0  0  0  0  0  0  0  0  0
    4.4306    2.7319    2.3819 H   0  0  0  0  0  0  0  0  0  0  0  0
    3.6924    1.4320    1.6204 H   0  0  0  0  0  0  0  0  0  0  0  0
    0.7268    3.4157    1.2308 H   0  0  0  0  0  0  0  0  0  0  0  0
    1.2966    1.9275    1.8467 H   0  0  0  0  0  0  0  0  0  0  0  0
    3.5025    3.5259   -0.9228 H   0  0  0  0  0  0  0  0  0  0  0  0
    4.8959    2.8768   -1.7709 H   0  0  0  0  0  0  0  0  0  0  0  0
    0.8268    3.8618   -1.2311 H   0  0  0  0  0  0  0  0  0  0  0  0
    0.9044   -0.9265   -0.5284 O   0  5  0  0  0  0  0  0  0  0  0  0
   -0.5597    1.3887   -1.7076 O   0  5  0  0  0  0  0  0  0  0  0  0
  1 10  1  0  0  0  0
  1  2  1  0  0  0  0
  1 16  1  0  0  0  0
  1 17  1  0  0  0  0
  2  3  1  0  0  0  0
  2 18  1  0  0  0  0
  2 19  1  0  0  0  0
  3  4  2  0  0  0  0
  3  5  1  0  0  0  0
  5  6  1  0  0  0  0
  5 20  1  0  0  0  0
  5 21  1  0  0  0  0
  6  7  1  0  0  0  0
  6 13  1  6  0  0  0
  6 15  1  0  0  0  0
  7  8  1  1  0  0  0
  7  9  1  0  0  0  0
  7 11  1  0  0  0  0
  9 10  1  0  0  0  0
 10 22  1  0  0  0  0
 10 23  1  0  0  0  0
 11 12  2  0  0  0  0
 11 25  1  0  0  0  0
 13 14  2  0  0  0  0
 13 26  1  0  0  0  0
 15 24  1  0  0  0  0
M  CHG  2  25  -1  26  -1
M  END
>  <cansmi>
O=C1CCCO[C@@H]([C@@](C1)(O)C(=O)[O-])C(=O)[O-]

>  <HBA2>
7

>  <HBD>
1

>  <logP>
-3.6445

>  <TPSA>
126.79

>  <MW>
230.171

$$$$
ZINC04349879
 OpenBabel02121623173D

 26 26  0  0  1  0  0  0  0  0999 V2000
   -1.3919   -3.3541    0.9905 C   0  0  0  0  0  0  0  0  0  0  0  0
   -0.6107   -2.5567    2.0407 C   0  0  0  0  0  0  0  0  0  0  0  0
    0.6150   -1.9400    1.4377 C   0  0  0  0  0  0  0  0  0  0  0  0
    1.5311   -2.6567    1.0959 O   0  0  0  0  0  0  0  0  0  0  0  0
    0.7306   -0.4462    1.2787 C   0  0  0  0  0  0  0  0  0  0  0  0
    0.0021   -0.0041    0.0020 C   0  0  2  0  0  0  0  0  0  0  0  0
   -1.4377   -0.4797    0.0132 C   0  0  2  0  0  0  0  0  0  0  0  0
   -1.7505   -0.6201    1.0653 H   0  0  0  0  0  0  0  0  0  0  0  0
   -1.7415   -1.6703   -0.6808 O   0  0  0  0  0  0  0  0  0  0  0  0
   -0.9465   -2.8313   -0.4023 C   0  0  0  0  0  0  0  0  0  0  0  0
   -2.3207    0.6250   -0.5418 C   0  0  0  0  0  0  0  0  0  0  0  0
   -2.9187    0.4571   -1.5782 O   0  0  0  0  0  0  0  0  0  0  0  0
    0.7479   -0.4183   -1.2352 C   0  0  0  0  0  0  0  0  0  0  0  0
    0.4177   -1.4140   -1.8347 O   0  0  0  0  0  0  0  0  0  0  0  0
   -0.0176    1.4474    0.0100 O   0  0  0  0  0  0  0  0  0  0  0  0
   -2.4597   -3.1900    1.1090 H   0  0  0  0  0  0  0  0  0  0  0  0
   -1.1539   -4.4119    1.0678 H   0  0  0  0  0  0  0  0  0  0  0  0
   -1.1912   -1.8293    2.4067 H   0  0  0  0  0  0  0  0  0  0  0  0
   -0.3098   -3.2289    2.8472 H   0  0  0  0  0  0  0  0  0  0  0  0
    1.6953   -0.1921    1.2092 H   0  0  0  0  0  0  0  0  0  0  0  0
    0.2914    0.0550    2.1481 H   0  0  0  0  0  0  0  0  0  0  0  0
   -1.2104   -3.6043   -1.1405 H   0  0  0  0  0  0  0  0  0  0  0  0
    0.1060   -2.6694   -0.4376 H   0  0  0  0  0  0  0  0  0  0  0  0
    0.8603    1.8527    0.0038 H   0  0  0  0  0  0  0  0  0  0  0  0
   -2.4365    1.7875    0.1191 O   0  5  0  0  0  0  0  0  0  0  0  0
    1.7809    0.3178   -1.6742 O   0  5  0  0  0  0  0  0  0  0  0  0
  1 10  1  0  0  0  0
  1  2  1  0  0  0  0
  1 16  1  0  0  0  0
  1 17  1  0  0  0  0
  2  3  1  0  0  0  0
  2 18  1  0  0  0  0
  2 19  1  0  0  0  0
  3  4  2  0  0  0  0
  3  5  1  0  0  0  0
  5  6  1  0  0  0  0
  5 20  1  0  0  0  0
  5 21  1  0  0  0  0
  6  7  1  0  0  0  0
  6 13  1  6  0  0  0
  6 15  1  0  0  0  0
  7  8  1  1  0  0  0
  7  9  1  0  0  0  0
  7 11  1  0  0  0  0
  9 10  1  0  0  0  0
 10 22  1  0  0  0  0
 10 23  1  0  0  0  0
 11 12  2  0  0  0  0
 11 25  1  0  0  0  0
 13 14  2  0  0  0  0
 13 26  1  0  0  0  0
 15 24  1  0  0  0  0
M  CHG  2  25  -1  26  -1
M  END
>  <cansmi>
O=C1CCCO[C@@H]([C@](C1)(O)C(=O)[O-])C(=O)[O-]

>  <HBA2>
7

>  <HBD>
1

>  <logP>
-3.6445

>  <TPSA>
126.79

>  <MW>
230.171

$$$$
ZINC04247581
 OpenBabel02121623173D

 48 51  0  0  1  0  0  0  0  0999 V2000
   -2.7587   10.6956   -1.9135 C   0  0  0  0  0  0  0  0  0  0  0  0
   -1.5358   11.3461   -1.8547 C   0  0  0  0  0  0  0  0  0  0  0  0
   -0.4366   10.7318   -1.2897 C   0  0  0  0  0  0  0  0  0  0  0  0
   -0.5462    9.4491   -0.7704 C   0  0  0  0  0  0  0  0  0  0  0  0
   -1.7861    8.7923   -0.8272 C   0  0  0  0  0  0  0  0  0  0  0  0
   -2.8906    9.4216   -1.4038 C   0  0  0  0  0  0  0  0  0  0  0  0
   -1.9155    7.4155   -0.2609 C   0  0  0  0  0  0  0  0  0  0  0  0
   -2.8772    6.7023   -0.4555 O   0  0  0  0  0  0  0  0  0  0  0  0
   -0.7413    6.9784    0.5924 C   0  0  2  0  0  0  0  0  0  0  0  0
   -0.8127    7.3975    1.4975 H   0  0  0  0  0  0  0  0  0  0  0  0
    0.5369    7.4306   -0.1323 C   0  0  1  0  0  0  0  0  0  0  0  0
    0.5476    7.0104   -1.1380 H   0  0  0  0  0  0  0  0  0  0  0  0
    0.5402    8.8518   -0.2172 O   0  0  0  0  0  0  0  0  0  0  0  0
    1.7300    6.9248    0.6292 C   0  0  0  0  0  0  0  0  0  0  0  0
    1.6729    5.7030    1.1844 C   0  0  0  0  0  0  0  0  0  0  0  0
    0.4586    4.8852    1.0136 C   0  0  2  0  0  0  0  0  0  0  0  0
   -0.7101    5.4823    0.7378 C   0  0  0  0  0  0  0  0  0  0  0  0
   -1.8410    4.7514    0.5933 O   0  0  0  0  0  0  0  0  0  0  0  0
    0.5289    3.3865    1.1543 C   0  0  1  0  0  0  0  0  0  0  0  0
   -0.4746    2.9671    1.0815 H   0  0  0  0  0  0  0  0  0  0  0  0
    1.4054    2.8096    0.0396 C   0  0  1  0  0  0  0  0  0  0  0  0
    2.3974    3.2589    0.0867 H   0  0  0  0  0  0  0  0  0  0  0  0
    1.5210    1.2934    0.2245 C   0  0  1  0  0  0  0  0  0  0  0  0
    2.1879    0.8833   -0.5339 H   0  0  0  0  0  0  0  0  0  0  0  0
    2.0869    0.9998    1.6173 C   0  0  1  0  0  0  0  0  0  0  0  0
    3.0926    1.4127    1.6963 H   0  0  0  0  0  0  0  0  0  0  0  0
    1.1832    1.6484    2.6719 C   0  0  1  0  0  0  0  0  0  0  0  0
    1.6037    1.4804    3.6633 H   0  0  0  0  0  0  0  0  0  0  0  0
    1.0941    3.0529    2.4237 O   0  0  0  0  0  0  0  0  0  0  0  0
   -0.2133    1.0277    2.5977 C   0  0  0  0  0  0  0  0  0  0  0  0
   -1.0110    1.5193    3.6766 O   0  0  0  0  0  0  0  0  0  0  0  0
    2.1317   -0.4131    1.8265 O   0  0  0  0  0  0  0  0  0  0  0  0
    0.2288    0.6965    0.0980 O   0  0  0  0  0  0  0  0  0  0  0  0
    0.8131    3.0920   -1.2299 O   0  0  0  0  0  0  0  0  0  0  0  0
    2.7270    5.2217    1.8939 O   0  0  0  0  0  0  0  0  0  0  0  0
   -3.6099   11.1880   -2.3601 H   0  0  0  0  0  0  0  0  0  0  0  0
   -1.4424   12.3447   -2.2552 H   0  0  0  0  0  0  0  0  0  0  0  0
    0.5102   11.2501   -1.2511 H   0  0  0  0  0  0  0  0  0  0  0  0
   -3.8426    8.9137   -1.4502 H   0  0  0  0  0  0  0  0  0  0  0  0
    2.6159    7.5341    0.7318 H   0  0  0  0  0  0  0  0  0  0  0  0
    0.3650    4.6241    0.0528 H   0  0  0  0  0  0  0  0  0  0  0  0
   -0.6799    1.2950    1.6496 H   0  0  0  0  0  0  0  0  0  0  0  0
   -0.1330   -0.0570    2.6701 H   0  0  0  0  0  0  0  0  0  0  0  0
   -1.9114    1.1670    3.6923 H   0  0  0  0  0  0  0  0  0  0  0  0
    2.6827   -0.8878    1.1893 H   0  0  0  0  0  0  0  0  0  0  0  0
    0.2270   -0.2643    0.2069 H   0  0  0  0  0  0  0  0  0  0  0  0
    1.3149    2.7506   -1.9827 H   0  0  0  0  0  0  0  0  0  0  0  0
    2.5111    4.3054    2.2314 H   0  0  0  0  0  0  0  0  0  0  0  0
  1  6  2  0  0  0  0
  1  2  1  0  0  0  0
  1 36  1  0  0  0  0
  2  3  2  0  0  0  0
  2 37  1  0  0  0  0
  3  4  1  0  0  0  0
  3 38  1  0  0  0  0
  4 13  1  0  0  0  0
  4  5  2  0  0  0  0
  5  6  1  0  0  0  0
  5  7  1  0  0  0  0
  6 39  1  0  0  0  0
  7  8  2  0  0  0  0
  7  9  1  0  0  0  0
  9 11  1  0  0  0  0
  9 17  1  0  0  0  0
  9 10  1  1  0  0  0
 11 12  1  6  0  0  0
 11 13  1  0  0  0  0
 11 14  1  0  0  0  0
 14 15  2  0  0  0  0
 14 40  1  0  0  0  0
 15 16  1  0  0  0  0
 15 35  1  0  0  0  0
 16 19  1  0  0  0  0
 16 41  1  6  0  0  0
 16 17  1  0  0  0  0
 17 18  2  0  0  0  0
 19 20  1  6  0  0  0
 19 29  1  0  0  0  0
 19 21  1  0  0  0  0
 21 22  1  1  0  0  0
 21 23  1  0  0  0  0
 21 34  1  0  0  0  0
 23 24  1  6  0  0  0
 23 25  1  0  0  0  0
 23 33  1  0  0  0  0
 25 26  1  1  0  0  0
 25 27  1  0  0  0  0
 25 32  1  0  0  0  0
 27 28  1  1  0  0  0
 27 29  1  0  0  0  0
 27 30  1  0  0  0  0
 30 31  1  0  0  0  0
 30 42  1  0  0  0  0
 30 43  1  0  0  0  0
 31 44  1  0  0  0  0
 32 45  1  0  0  0  0
 33 46  1  0  0  0  0
 34 47  1  0  0  0  0
 35 48  1  0  0  0  0
M  END
>  <cansmi>
OC[C@@H]1O[C@@H]([C@@H]2C(=C[C@H]3[C@H](C2=O)C(=O)c2c(O3)cccc2)O)[C@@H]([C@@H]([C@@H]1O)O)O

>  <HBA2>
9

>  <HBD>
5

>  <logP>
-1.2703

>  <TPSA>
153.75

>  <MW>
392.357

$$$$
ZINC04247587
 OpenBabel02121623173D

 48 51  0  0  1  0  0  0  0  0999 V2000
    6.7919    7.1349    1.7195 C   0  0  0  0  0  0  0  0  0  0  0  0
    7.0431    6.9708    0.3661 C   0  0  0  0  0  0  0  0  0  0  0  0
    6.0273    6.6275   -0.5031 C   0  0  0  0  0  0  0  0  0  0  0  0
    4.7359    6.4430   -0.0268 C   0  0  0  0  0  0  0  0  0  0  0  0
    4.4809    6.6200    1.3425 C   0  0  0  0  0  0  0  0  0  0  0  0
    5.5168    6.9616    2.2135 C   0  0  0  0  0  0  0  0  0  0  0  0
    3.1040    6.4497    1.8366 C   0  0  0  0  0  0  0  0  0  0  0  0
    2.7883    6.7844    2.9589 O   0  0  0  0  0  0  0  0  0  0  0  0
    2.1004    5.8390    0.8832 C   0  0  1  0  0  0  0  0  0  0  0  0
    1.1751    6.0907    1.1670 H   0  0  0  0  0  0  0  0  0  0  0  0
    2.3878    6.3746   -0.5259 C   0  0  1  0  0  0  0  0  0  0  0  0
    2.2061    7.4484   -0.5696 H   0  0  0  0  0  0  0  0  0  0  0  0
    3.7443    6.0948   -0.8759 O   0  0  0  0  0  0  0  0  0  0  0  0
    1.4844    5.6580   -1.5031 C   0  0  0  0  0  0  0  0  0  0  0  0
    1.2180    4.3603   -1.3223 C   0  0  0  0  0  0  0  0  0  0  0  0
    1.8151    3.6441   -0.1812 C   0  0  1  0  0  0  0  0  0  0  0  0
    2.2311    4.3397    0.8847 C   0  0  0  0  0  0  0  0  0  0  0  0
    2.7676    3.7009    1.9515 O   0  0  0  0  0  0  0  0  0  0  0  0
    1.9506    2.1435   -0.2110 C   0  0  1  0  0  0  0  0  0  0  0  0
    2.5582    1.8164    0.6328 H   0  0  0  0  0  0  0  0  0  0  0  0
    0.5628    1.5037   -0.1194 C   0  0  1  0  0  0  0  0  0  0  0  0
   -0.0583    1.8618   -0.9403 H   0  0  0  0  0  0  0  0  0  0  0  0
    0.7041   -0.0188   -0.2108 C   0  0  1  0  0  0  0  0  0  0  0  0
   -0.2845   -0.4779   -0.2025 H   0  0  0  0  0  0  0  0  0  0  0  0
    1.4241   -0.3764   -1.5147 C   0  0  1  0  0  0  0  0  0  0  0  0
    0.8203   -0.0562   -2.3638 H   0  0  0  0  0  0  0  0  0  0  0  0
    2.7786    0.3361   -1.5525 C   0  0  1  0  0  0  0  0  0  0  0  0
    3.2771    0.1194   -2.4973 H   0  0  0  0  0  0  0  0  0  0  0  0
    2.5774    1.7457   -1.4321 O   0  0  0  0  0  0  0  0  0  0  0  0
    3.6466   -0.1563   -0.3927 C   0  0  0  0  0  0  0  0  0  0  0  0
    4.9664    0.3749   -0.5265 O   0  0  0  0  0  0  0  0  0  0  0  0
    1.6260   -1.7897   -1.5766 O   0  0  0  0  0  0  0  0  0  0  0  0
    1.4622   -0.4963    0.9024 O   0  0  0  0  0  0  0  0  0  0  0  0
   -0.0427    1.8531    1.1269 O   0  0  0  0  0  0  0  0  0  0  0  0
    0.4006    3.7046   -2.1871 O   0  0  0  0  0  0  0  0  0  0  0  0
    7.5974    7.3997    2.3886 H   0  0  0  0  0  0  0  0  0  0  0  0
    8.0446    7.1128   -0.0124 H   0  0  0  0  0  0  0  0  0  0  0  0
    6.2371    6.5018   -1.5550 H   0  0  0  0  0  0  0  0  0  0  0  0
    5.3205    7.0888    3.2679 H   0  0  0  0  0  0  0  0  0  0  0  0
    1.0572    6.1900   -2.3403 H   0  0  0  0  0  0  0  0  0  0  0  0
    2.8032    3.5688   -0.3151 H   0  0  0  0  0  0  0  0  0  0  0  0
    3.2149    0.1768    0.5511 H   0  0  0  0  0  0  0  0  0  0  0  0
    3.6900   -1.2453   -0.4081 H   0  0  0  0  0  0  0  0  0  0  0  0
    5.5728    0.1035    0.1762 H   0  0  0  0  0  0  0  0  0  0  0  0
    0.8083   -2.3053   -1.5522 H   0  0  0  0  0  0  0  0  0  0  0  0
    1.5909   -1.4547    0.9085 H   0  0  0  0  0  0  0  0  0  0  0  0
   -0.9244    1.4770    1.2549 H   0  0  0  0  0  0  0  0  0  0  0  0
    0.3123    2.7498   -1.9033 H   0  0  0  0  0  0  0  0  0  0  0  0
  1  6  2  0  0  0  0
  1  2  1  0  0  0  0
  1 36  1  0  0  0  0
  2  3  2  0  0  0  0
  2 37  1  0  0  0  0
  3  4  1  0  0  0  0
  3 38  1  0  0  0  0
  4 13  1  0  0  0  0
  4  5  2  0  0  0  0
  5  6  1  0  0  0  0
  5  7  1  0  0  0  0
  6 39  1  0  0  0  0
  7  8  2  0  0  0  0
  7  9  1  0  0  0  0
  9 11  1  0  0  0  0
  9 17  1  0  0  0  0
  9 10  1  1  0  0  0
 11 12  1  6  0  0  0
 11 13  1  0  0  0  0
 11 14  1  0  0  0  0
 14 15  2  0  0  0  0
 14 40  1  0  0  0  0
 15 16  1  0  0  0  0
 15 35  1  0  0  0  0
 16 19  1  0  0  0  0
 16 41  1  6  0  0  0
 16 17  1  0  0  0  0
 17 18  2  0  0  0  0
 19 20  1  1  0  0  0
 19 29  1  0  0  0  0
 19 21  1  0  0  0  0
 21 22  1  6  0  0  0
 21 23  1  0  0  0  0
 21 34  1  0  0  0  0
 23 24  1  1  0  0  0
 23 25  1  0  0  0  0
 23 33  1  0  0  0  0
 25 26  1  6  0  0  0
 25 27  1  0  0  0  0
 25 32  1  0  0  0  0
 27 28  1  6  0  0  0
 27 29  1  0  0  0  0
 27 30  1  0  0  0  0
 30 31  1  0  0  0  0
 30 42  1  0  0  0  0
 30 43  1  0  0  0  0
 31 44  1  0  0  0  0
 32 45  1  0  0  0  0
 33 46  1  0  0  0  0
 34 47  1  0  0  0  0
 35 48  1  0  0  0  0
M  END
>  <cansmi>
OC[C@@H]1O[C@@H]([C@H]2C(=C[C@H]3[C@@H](C2=O)C(=O)c2c(O3)cccc2)O)[C@@H]([C@@H]([C@@H]1O)O)O

>  <HBA2>
9

>  <HBD>
5

>  <logP>
-1.2703

>  <TPSA>
153.75

>  <MW>
392.357

$$$$
ZINC04247588
 OpenBabel02121623173D

 48 51  0  0  1  0  0  0  0  0999 V2000
   -4.1112    3.3894   -0.5386 C   0  0  0  0  0  0  0  0  0  0  0  0
   -3.8615    4.7317   -0.2983 C   0  0  0  0  0  0  0  0  0  0  0  0
   -2.5815    5.1743   -0.0327 C   0  0  0  0  0  0  0  0  0  0  0  0
   -1.5253    4.2731   -0.0022 C   0  0  0  0  0  0  0  0  0  0  0  0
   -1.7809    2.9125   -0.2424 C   0  0  0  0  0  0  0  0  0  0  0  0
   -3.0788    2.4765   -0.5090 C   0  0  0  0  0  0  0  0  0  0  0  0
   -0.6593    1.9598   -0.1854 C   0  0  0  0  0  0  0  0  0  0  0  0
   -0.8464    0.7613   -0.1819 O   0  0  0  0  0  0  0  0  0  0  0  0
    0.7368    2.5410   -0.1378 C   0  0  2  0  0  0  0  0  0  0  0  0
    1.3672    1.8634    0.2408 H   0  0  0  0  0  0  0  0  0  0  0  0
    0.7057    3.7942    0.7477 C   0  0  2  0  0  0  0  0  0  0  0  0
    0.4763    3.5175    1.7767 H   0  0  0  0  0  0  0  0  0  0  0  0
   -0.2707    4.7088    0.2464 O   0  0  0  0  0  0  0  0  0  0  0  0
    2.0615    4.4592    0.6817 C   0  0  0  0  0  0  0  0  0  0  0  0
    2.7304    4.4745   -0.4761 C   0  0  0  0  0  0  0  0  0  0  0  0
    2.1347    3.8534   -1.6723 C   0  0  1  0  0  0  0  0  0  0  0  0
    1.1839    2.9223   -1.5231 C   0  0  0  0  0  0  0  0  0  0  0  0
    0.6307    2.3297   -2.6078 O   0  0  0  0  0  0  0  0  0  0  0  0
    2.5906    4.2620   -3.0493 C   0  0  1  0  0  0  0  0  0  0  0  0
    2.1106    3.6276   -3.7943 H   0  0  0  0  0  0  0  0  0  0  0  0
    2.2090    5.7232   -3.3007 C   0  0  1  0  0  0  0  0  0  0  0  0
    2.6557    6.3538   -2.5320 H   0  0  0  0  0  0  0  0  0  0  0  0
    2.7284    6.1487   -4.6775 C   0  0  1  0  0  0  0  0  0  0  0  0
    2.5091    7.2041   -4.8397 H   0  0  0  0  0  0  0  0  0  0  0  0
    4.2430    5.9260   -4.7308 C   0  0  1  0  0  0  0  0  0  0  0  0
    4.7308    6.5607   -3.9910 H   0  0  0  0  0  0  0  0  0  0  0  0
    4.5460    4.4571   -4.4242 C   0  0  1  0  0  0  0  0  0  0  0  0
    5.6249    4.3020   -4.4186 H   0  0  0  0  0  0  0  0  0  0  0  0
    4.0093    4.1186   -3.1437 O   0  0  0  0  0  0  0  0  0  0  0  0
    3.9085    3.5701   -5.4955 C   0  0  0  0  0  0  0  0  0  0  0  0
    4.3084    2.2136   -5.2907 O   0  0  0  0  0  0  0  0  0  0  0  0
    4.7281    6.2528   -6.0346 O   0  0  0  0  0  0  0  0  0  0  0  0
    2.0926    5.3671   -5.6908 O   0  0  0  0  0  0  0  0  0  0  0  0
    0.7869    5.8584   -3.2641 O   0  0  0  0  0  0  0  0  0  0  0  0
    3.9539    5.0608   -0.5494 O   0  0  0  0  0  0  0  0  0  0  0  0
   -5.1172    3.0581   -0.7498 H   0  0  0  0  0  0  0  0  0  0  0  0
   -4.6775    5.4388   -0.3196 H   0  0  0  0  0  0  0  0  0  0  0  0
   -2.4011    6.2230    0.1521 H   0  0  0  0  0  0  0  0  0  0  0  0
   -3.2727    1.4306   -0.6958 H   0  0  0  0  0  0  0  0  0  0  0  0
    2.4865    4.9179    1.5622 H   0  0  0  0  0  0  0  0  0  0  0  0
    2.6611    3.0410   -1.9233 H   0  0  0  0  0  0  0  0  0  0  0  0
    2.8230    3.6429   -5.4288 H   0  0  0  0  0  0  0  0  0  0  0  0
    4.2348    3.9002   -6.4818 H   0  0  0  0  0  0  0  0  0  0  0  0
    3.9407    1.5935   -5.9352 H   0  0  0  0  0  0  0  0  0  0  0  0
    4.5655    7.1694   -6.2964 H   0  0  0  0  0  0  0  0  0  0  0  0
    2.3749    5.5840   -6.5899 H   0  0  0  0  0  0  0  0  0  0  0  0
    0.4736    6.7605   -3.4160 H   0  0  0  0  0  0  0  0  0  0  0  0
    4.3065    4.9809   -1.4818 H   0  0  0  0  0  0  0  0  0  0  0  0
  1  6  2  0  0  0  0
  1  2  1  0  0  0  0
  1 36  1  0  0  0  0
  2  3  2  0  0  0  0
  2 37  1  0  0  0  0
  3  4  1  0  0  0  0
  3 38  1  0  0  0  0
  4 13  1  0  0  0  0
  4  5  2  0  0  0  0
  5  6  1  0  0  0  0
  5  7  1  0  0  0  0
  6 39  1  0  0  0  0
  7  8  2  0  0  0  0
  7  9  1  0  0  0  0
  9 11  1  0  0  0  0
  9 17  1  0  0  0  0
  9 10  1  1  0  0  0
 11 12  1  1  0  0  0
 11 13  1  0  0  0  0
 11 14  1  0  0  0  0
 14 15  2  0  0  0  0
 14 40  1  0  0  0  0
 15 16  1  0  0  0  0
 15 35  1  0  0  0  0
 16 19  1  0  0  0  0
 16 41  1  1  0  0  0
 16 17  1  0  0  0  0
 17 18  2  0  0  0  0
 19 20  1  6  0  0  0
 19 29  1  0  0  0  0
 19 21  1  0  0  0  0
 21 22  1  1  0  0  0
 21 23  1  0  0  0  0
 21 34  1  0  0  0  0
 23 24  1  6  0  0  0
 23 25  1  0  0  0  0
 23 33  1  0  0  0  0
 25 26  1  1  0  0  0
 25 27  1  0  0  0  0
 25 32  1  0  0  0  0
 27 28  1  1  0  0  0
 27 29  1  0  0  0  0
 27 30  1  0  0  0  0
 30 31  1  0  0  0  0
 30 42  1  0  0  0  0
 30 43  1  0  0  0  0
 31 44  1  0  0  0  0
 32 45  1  0  0  0  0
 33 46  1  0  0  0  0
 34 47  1  0  0  0  0
 35 48  1  0  0  0  0
M  END
>  <cansmi>
OC[C@@H]1O[C@@H]([C@H]2C(=C[C@@H]3[C@H](C2=O)C(=O)c2c(O3)cccc2)O)[C@@H]([C@@H]([C@@H]1O)O)O

>  <HBA2>
9

>  <HBD>
5

>  <logP>
-1.2703

>  <TPSA>
153.75

>  <MW>
392.357

$$$$
ZINC04247590
 OpenBabel02121623173D

 48 51  0  0  1  0  0  0  0  0999 V2000
    8.1038    2.2300   -1.9792 C   0  0  0  0  0  0  0  0  0  0  0  0
    7.9070    0.8609   -1.8865 C   0  0  0  0  0  0  0  0  0  0  0  0
    6.6501    0.3442   -1.6441 C   0  0  0  0  0  0  0  0  0  0  0  0
    5.5653    1.1966   -1.4901 C   0  0  0  0  0  0  0  0  0  0  0  0
    5.7647    2.5832   -1.5885 C   0  0  0  0  0  0  0  0  0  0  0  0
    7.0406    3.0948   -1.8320 C   0  0  0  0  0  0  0  0  0  0  0  0
    4.6102    3.4913   -1.4319 C   0  0  0  0  0  0  0  0  0  0  0  0
    4.7418    4.6886   -1.2889 O   0  0  0  0  0  0  0  0  0  0  0  0
    3.2492    2.8236   -1.4616 C   0  0  1  0  0  0  0  0  0  0  0  0
    2.9942    2.6286   -2.4087 H   0  0  0  0  0  0  0  0  0  0  0  0
    3.3770    1.5379   -0.6284 C   0  0  2  0  0  0  0  0  0  0  0  0
    3.7175    1.7930    0.3751 H   0  0  0  0  0  0  0  0  0  0  0  0
    4.3331    0.6815   -1.2443 O   0  0  0  0  0  0  0  0  0  0  0  0
    2.0252    0.8907   -0.5179 C   0  0  0  0  0  0  0  0  0  0  0  0
    0.9449    1.6729   -0.3760 C   0  0  0  0  0  0  0  0  0  0  0  0
    1.1101    3.1361   -0.3091 C   0  0  2  0  0  0  0  0  0  0  0  0
    2.2071    3.7049   -0.8302 C   0  0  0  0  0  0  0  0  0  0  0  0
    2.3735    5.0482   -0.7882 O   0  0  0  0  0  0  0  0  0  0  0  0
    0.0518    3.9886    0.3421 C   0  0  1  0  0  0  0  0  0  0  0  0
    0.4113    5.0143    0.4249 H   0  0  0  0  0  0  0  0  0  0  0  0
   -1.2209    3.9609   -0.5084 C   0  0  1  0  0  0  0  0  0  0  0  0
   -1.5583    2.9310   -0.6256 H   0  0  0  0  0  0  0  0  0  0  0  0
   -2.3104    4.7801    0.1902 C   0  0  1  0  0  0  0  0  0  0  0  0
   -3.2362    4.7185   -0.3819 H   0  0  0  0  0  0  0  0  0  0  0  0
   -2.5378    4.2140    1.5952 C   0  0  1  0  0  0  0  0  0  0  0  0
   -2.9018    3.1893    1.5205 H   0  0  0  0  0  0  0  0  0  0  0  0
   -1.2142    4.2320    2.3644 C   0  0  1  0  0  0  0  0  0  0  0  0
   -1.3608    3.7906    3.3503 H   0  0  0  0  0  0  0  0  0  0  0  0
   -0.2365    3.4777    1.6452 O   0  0  0  0  0  0  0  0  0  0  0  0
   -0.7329    5.6761    2.5181 C   0  0  0  0  0  0  0  0  0  0  0  0
    0.4182    5.7071    3.3642 O   0  0  0  0  0  0  0  0  0  0  0  0
   -3.5007    5.0152    2.2829 O   0  0  0  0  0  0  0  0  0  0  0  0
   -1.8964    6.1446    0.2840 O   0  0  0  0  0  0  0  0  0  0  0  0
   -0.9488    4.5234   -1.7935 O   0  0  0  0  0  0  0  0  0  0  0  0
   -0.2932    1.1199   -0.2889 O   0  0  0  0  0  0  0  0  0  0  0  0
    9.0932    2.6202   -2.1669 H   0  0  0  0  0  0  0  0  0  0  0  0
    8.7460    0.1914   -2.0056 H   0  0  0  0  0  0  0  0  0  0  0  0
    6.5106   -0.7245   -1.5741 H   0  0  0  0  0  0  0  0  0  0  0  0
    7.1937    4.1614   -1.9043 H   0  0  0  0  0  0  0  0  0  0  0  0
    1.9251   -0.1840   -0.5556 H   0  0  0  0  0  0  0  0  0  0  0  0
    0.7078    3.5545   -1.1234 H   0  0  0  0  0  0  0  0  0  0  0  0
   -0.4750    6.0793    1.5388 H   0  0  0  0  0  0  0  0  0  0  0  0
   -1.5261    6.2782    2.9614 H   0  0  0  0  0  0  0  0  0  0  0  0
    0.7782    6.5933    3.5062 H   0  0  0  0  0  0  0  0  0  0  0  0
   -4.3635    5.0530    1.8479 H   0  0  0  0  0  0  0  0  0  0  0  0
   -2.5400    6.7221    0.7167 H   0  0  0  0  0  0  0  0  0  0  0  0
   -1.7127    4.5379   -2.3862 H   0  0  0  0  0  0  0  0  0  0  0  0
   -0.9753    1.8441   -0.1873 H   0  0  0  0  0  0  0  0  0  0  0  0
  1  6  2  0  0  0  0
  1  2  1  0  0  0  0
  1 36  1  0  0  0  0
  2  3  2  0  0  0  0
  2 37  1  0  0  0  0
  3  4  1  0  0  0  0
  3 38  1  0  0  0  0
  4 13  1  0  0  0  0
  4  5  2  0  0  0  0
  5  6  1  0  0  0  0
  5  7  1  0  0  0  0
  6 39  1  0  0  0  0
  7  8  2  0  0  0  0
  7  9  1  0  0  0  0
  9 11  1  0  0  0  0
  9 17  1  0  0  0  0
  9 10  1  6  0  0  0
 11 12  1  1  0  0  0
 11 13  1  0  0  0  0
 11 14  1  0  0  0  0
 14 15  2  0  0  0  0
 14 40  1  0  0  0  0
 15 16  1  0  0  0  0
 15 35  1  0  0  0  0
 16 19  1  0  0  0  0
 16 41  1  6  0  0  0
 16 17  1  0  0  0  0
 17 18  2  0  0  0  0
 19 20  1  1  0  0  0
 19 29  1  0  0  0  0
 19 21  1  0  0  0  0
 21 22  1  6  0  0  0
 21 23  1  0  0  0  0
 21 34  1  0  0  0  0
 23 24  1  6  0  0  0
 23 25  1  0  0  0  0
 23 33  1  0  0  0  0
 25 26  1  6  0  0  0
 25 27  1  0  0  0  0
 25 32  1  0  0  0  0
 27 28  1  1  0  0  0
 27 29  1  0  0  0  0
 27 30  1  0  0  0  0
 30 31  1  0  0  0  0
 30 42  1  0  0  0  0
 30 43  1  0  0  0  0
 31 44  1  0  0  0  0
 32 45  1  0  0  0  0
 33 46  1  0  0  0  0
 34 47  1  0  0  0  0
 35 48  1  0  0  0  0
M  END
>  <cansmi>
OC[C@@H]1O[C@@H]([C@@H]2C(=C[C@@H]3[C@@H](C2=O)C(=O)c2c(O3)cccc2)O)[C@@H]([C@@H]([C@@H]1O)O)O

>  <HBA2>
9

>  <HBD>
5

>  <logP>
-1.2703

>  <TPSA>
153.75

>  <MW>
392.357

$$$$
ZINC04349898
 OpenBabel02121623173D

 81 85  0  0  1  0  0  0  0  0999 V2000
    6.3524   -5.9414   -5.5893 C   0  0  0  0  0  0  0  0  0  0  0  0
    6.2222   -4.7050   -4.6972 C   0  0  0  0  0  0  0  0  0  0  0  0
    6.6035   -3.4427   -5.4509 C   0  0  0  0  0  0  0  0  0  0  0  0
    5.6100   -2.9953   -6.4916 C   0  0  0  0  0  0  0  0  0  0  0  0
    4.1945   -3.4953   -6.3769 C   0  0  2  0  0  0  0  0  0  0  0  0
    3.2112   -2.3912   -6.7892 C   0  0  0  0  0  0  0  0  0  0  0  0
    3.1224   -1.2158   -5.8234 C   0  0  0  0  0  0  0  0  0  0  0  0
    3.1100   -1.6807   -4.3679 C   0  0  2  0  0  0  0  0  0  0  0  0
    2.7927   -3.1448   -4.3804 C   0  0  0  0  0  0  0  0  0  0  0  0
    1.7035   -3.6382   -3.8861 C   0  0  0  0  0  0  0  0  0  0  0  0
    0.6458   -2.8157   -3.2298 C   0  0  0  0  0  0  0  0  0  0  0  0
    0.7371   -1.3309   -3.6216 C   0  0  2  0  0  0  0  0  0  0  0  0
    0.3948   -1.2201   -4.6582 H   0  0  0  0  0  0  0  0  0  0  0  0
    2.1701   -0.8471   -3.4913 C   0  0  1  0  0  0  0  0  0  0  0  0
    2.6183   -0.8542   -2.0333 C   0  0  0  0  0  0  0  0  0  0  0  0
    1.6480   -0.0891   -1.1243 C   0  0  2  0  0  0  0  0  0  0  0  0
    2.0003   -0.2743   -0.0901 H   0  0  0  0  0  0  0  0  0  0  0  0
    0.2433   -0.6381   -1.2684 C   0  0  2  0  0  0  0  0  0  0  0  0
    0.3568   -1.7399   -1.0334 H   0  0  0  0  0  0  0  0  0  0  0  0
   -0.2576   -0.6010   -2.6978 C   0  0  2  0  0  0  0  0  0  0  0  0
   -1.5836   -1.3927   -2.7505 C   0  0  0  0  0  0  0  0  0  0  0  0
   -2.5986   -0.7452   -1.8122 C   0  0  0  0  0  0  0  0  0  0  0  0
   -2.1010   -0.8229   -0.3725 C   0  0  1  0  0  0  0  0  0  0  0  0
   -2.0199   -1.8712   -0.0732 H   0  0  0  0  0  0  0  0  0  0  0  0
   -0.7310   -0.1585   -0.2113 C   0  0  0  0  0  0  0  0  0  0  0  0
   -0.8979    1.3576   -0.1681 C   0  0  0  0  0  0  0  0  0  0  0  0
   -0.2002   -0.5984    1.1750 C   0  0  0  0  0  0  0  0  0  0  0  0
   -3.0373   -0.1695    0.4911 O   0  0  0  0  0  0  0  0  0  0  0  0
   -0.5554    0.7979   -3.2231 C   0  0  0  0  0  0  0  0  0  0  0  0
    1.7351    1.3105   -1.3460 O   0  0  0  0  0  0  0  0  0  0  0  0
    2.3359    0.5962   -4.0077 C   0  0  0  0  0  0  0  0  0  0  0  0
    3.7751   -4.0847   -5.0544 C   0  0  2  0  0  0  0  0  0  0  0  0
    3.1615   -4.9788   -5.3258 H   0  0  0  0  0  0  0  0  0  0  0  0
    4.8216   -4.6034   -4.1206 C   0  0  0  0  0  0  0  0  0  0  0  0
    4.5306   -1.4743   -3.8363 C   0  0  0  0  0  0  0  0  0  0  0  0
    4.0198   -4.5883   -7.4312 C   0  0  0  0  0  0  0  0  0  0  0  0
    3.6095   -5.6782   -7.1093 O   0  0  0  0  0  0  0  0  0  0  0  0
    7.2059   -4.8761   -3.5186 C   0  0  0  0  0  0  0  0  0  0  0  0
    7.3836   -6.0371   -5.9293 H   0  0  0  0  0  0  0  0  0  0  0  0
    6.0728   -6.8295   -5.0225 H   0  0  0  0  0  0  0  0  0  0  0  0
    5.6936   -5.8383   -6.4515 H   0  0  0  0  0  0  0  0  0  0  0  0
    7.5773   -3.6165   -5.9449 H   0  0  0  0  0  0  0  0  0  0  0  0
    6.7809   -2.6306   -4.7313 H   0  0  0  0  0  0  0  0  0  0  0  0
    5.9960   -3.2846   -7.4857 H   0  0  0  0  0  0  0  0  0  0  0  0
    5.5915   -1.8925   -6.5043 H   0  0  0  0  0  0  0  0  0  0  0  0
    3.5061   -2.0152   -7.7775 H   0  0  0  0  0  0  0  0  0  0  0  0
    2.2142   -2.8374   -6.8961 H   0  0  0  0  0  0  0  0  0  0  0  0
    3.9658   -0.5444   -5.9852 H   0  0  0  0  0  0  0  0  0  0  0  0
    2.1865   -0.6938   -6.0590 H   0  0  0  0  0  0  0  0  0  0  0  0
    1.5563   -4.7091   -3.9553 H   0  0  0  0  0  0  0  0  0  0  0  0
    0.7221   -2.9283   -2.1503 H   0  0  0  0  0  0  0  0  0  0  0  0
   -0.3304   -3.2014   -3.5519 H   0  0  0  0  0  0  0  0  0  0  0  0
    2.6940   -1.8815   -1.6768 H   0  0  0  0  0  0  0  0  0  0  0  0
    3.5858   -0.3542   -1.9173 H   0  0  0  0  0  0  0  0  0  0  0  0
   -1.9581   -1.3818   -3.7705 H   0  0  0  0  0  0  0  0  0  0  0  0
   -1.4012   -2.4132   -2.4220 H   0  0  0  0  0  0  0  0  0  0  0  0
   -2.8017    0.2816   -2.0908 H   0  0  0  0  0  0  0  0  0  0  0  0
   -3.5426   -1.3031   -1.8845 H   0  0  0  0  0  0  0  0  0  0  0  0
    0.0500    1.8198    0.1077 H   0  0  0  0  0  0  0  0  0  0  0  0
   -1.2055    1.7174   -1.1500 H   0  0  0  0  0  0  0  0  0  0  0  0
   -1.6574    1.6187    0.5688 H   0  0  0  0  0  0  0  0  0  0  0  0
   -0.9162   -0.3126    1.9456 H   0  0  0  0  0  0  0  0  0  0  0  0
   -0.0666   -1.6801    1.1863 H   0  0  0  0  0  0  0  0  0  0  0  0
    0.7558   -0.1122    1.3690 H   0  0  0  0  0  0  0  0  0  0  0  0
   -3.9323   -0.5331    0.4478 H   0  0  0  0  0  0  0  0  0  0  0  0
    0.2847    1.4559   -3.0012 H   0  0  0  0  0  0  0  0  0  0  0  0
   -0.7092    0.7559   -4.3014 H   0  0  0  0  0  0  0  0  0  0  0  0
   -1.4550    1.1826   -2.7426 H   0  0  0  0  0  0  0  0  0  0  0  0
    2.6290    1.6681   -1.2556 H   0  0  0  0  0  0  0  0  0  0  0  0
    1.8255    1.2842   -3.3337 H   0  0  0  0  0  0  0  0  0  0  0  0
    3.3957    0.8477   -4.0493 H   0  0  0  0  0  0  0  0  0  0  0  0
    1.9039    0.6772   -5.0051 H   0  0  0  0  0  0  0  0  0  0  0  0
    4.8514   -3.9916   -3.2147 H   0  0  0  0  0  0  0  0  0  0  0  0
    4.5178   -5.6109   -3.7924 H   0  0  0  0  0  0  0  0  0  0  0  0
    5.2389   -1.9952   -4.4806 H   0  0  0  0  0  0  0  0  0  0  0  0
    4.7637   -0.4095   -3.8263 H   0  0  0  0  0  0  0  0  0  0  0  0
    4.6009   -1.8711   -2.8236 H   0  0  0  0  0  0  0  0  0  0  0  0
    7.1377   -4.0104   -2.8598 H   0  0  0  0  0  0  0  0  0  0  0  0
    6.9518   -5.7777   -2.9612 H   0  0  0  0  0  0  0  0  0  0  0  0
    8.2223   -4.9610   -3.9030 H   0  0  0  0  0  0  0  0  0  0  0  0
    4.3223   -4.3372   -8.7147 O   0  5  0  0  0  0  0  0  0  0  0  0
  1  2  1  0  0  0  0
  1 39  1  0  0  0  0
  1 40  1  0  0  0  0
  1 41  1  0  0  0  0
  2 34  1  0  0  0  0
  2  3  1  0  0  0  0
  2 38  1  0  0  0  0
  3  4  1  0  0  0  0
  3 42  1  0  0  0  0
  3 43  1  0  0  0  0
  4  5  1  0  0  0  0
  4 44  1  0  0  0  0
  4 45  1  0  0  0  0
  5 32  1  0  0  0  0
  5  6  1  0  0  0  0
  5 36  1  6  0  0  0
  6  7  1  0  0  0  0
  6 46  1  0  0  0  0
  6 47  1  0  0  0  0
  7  8  1  0  0  0  0
  7 48  1  0  0  0  0
  7 49  1  0  0  0  0
  8 14  1  0  0  0  0
  8  9  1  0  0  0  0
  8 35  1  1  0  0  0
  9 10  2  0  0  0  0
  9 32  1  0  0  0  0
 10 11  1  0  0  0  0
 10 50  1  0  0  0  0
 11 12  1  0  0  0  0
 11 51  1  0  0  0  0
 11 52  1  0  0  0  0
 12 13  1  6  0  0  0
 12 20  1  0  0  0  0
 12 14  1  0  0  0  0
 14 15  1  0  0  0  0
 14 31  1  6  0  0  0
 15 16  1  0  0  0  0
 15 53  1  0  0  0  0
 15 54  1  0  0  0  0
 16 17  1  1  0  0  0
 16 18  1  0  0  0  0
 16 30  1  0  0  0  0
 18 19  1  1  0  0  0
 18 25  1  0  0  0  0
 18 20  1  0  0  0  0
 20 21  1  0  0  0  0
 20 29  1  6  0  0  0
 21 22  1  0  0  0  0
 21 55  1  0  0  0  0
 21 56  1  0  0  0  0
 22 23  1  0  0  0  0
 22 57  1  0  0  0  0
 22 58  1  0  0  0  0
 23 24  1  1  0  0  0
 23 25  1  0  0  0  0
 23 28  1  0  0  0  0
 25 26  1  0  0  0  0
 25 27  1  0  0  0  0
 26 59  1  0  0  0  0
 26 60  1  0  0  0  0
 26 61  1  0  0  0  0
 27 62  1  0  0  0  0
 27 63  1  0  0  0  0
 27 64  1  0  0  0  0
 28 65  1  0  0  0  0
 29 66  1  0  0  0  0
 29 67  1  0  0  0  0
 29 68  1  0  0  0  0
 30 69  1  0  0  0  0
 31 70  1  0  0  0  0
 31 71  1  0  0  0  0
 31 72  1  0  0  0  0
 32 33  1  6  0  0  0
 32 34  1  0  0  0  0
 34 73  1  0  0  0  0
 34 74  1  0  0  0  0
 35 75  1  0  0  0  0
 35 76  1  0  0  0  0
 35 77  1  0  0  0  0
 36 37  2  0  0  0  0
 36 81  1  0  0  0  0
 38 78  1  0  0  0  0
 38 79  1  0  0  0  0
 38 80  1  0  0  0  0
M  CHG  1  81  -1
M  END
>  <cansmi>
O[C@@H]1C[C@]2(C)[C@H]([C@@]3([C@@H]1C(C)(C)[C@H](CC3)O)C)CC=C1[C@@]2(C)CC[C@@]2([C@H]1CC(CC2)(C)C)C(=O)[O-]

>  <HBA2>
4

>  <HBD>
2

>  <logP>
4.8697

>  <TPSA>
80.59

>  <MW>
471.692

$$$$
ZINC04349902
 OpenBabel02121623173D

 81 85  0  0  1  0  0  0  0  0999 V2000
    2.4743    2.3115   -2.9539 C   0  0  0  0  0  0  0  0  0  0  0  0
    3.0559    3.0399   -1.7452 C   0  0  0  0  0  0  0  0  0  0  0  0
    2.1529    4.1956   -1.3229 C   0  0  0  0  0  0  0  0  0  0  0  0
    0.7751    3.6844   -0.9317 C   0  0  0  0  0  0  0  0  0  0  0  0
    0.8352    2.6494    0.1901 C   0  0  2  0  0  0  0  0  0  0  0  0
    1.0461    3.3436    1.5291 C   0  0  0  0  0  0  0  0  0  0  0  0
    1.0169    2.3392    2.6853 C   0  0  0  0  0  0  0  0  0  0  0  0
    2.1661    1.3331    2.5259 C   0  0  2  0  0  0  0  0  0  0  0  0
    2.0501    0.7085    1.1701 C   0  0  0  0  0  0  0  0  0  0  0  0
    2.0689   -0.5780    0.9674 C   0  0  0  0  0  0  0  0  0  0  0  0
    2.1064   -1.5979    2.0635 C   0  0  0  0  0  0  0  0  0  0  0  0
    2.7730   -1.0295    3.3137 C   0  0  2  0  0  0  0  0  0  0  0  0
    2.4678   -1.7149    4.1490 H   0  0  0  0  0  0  0  0  0  0  0  0
    2.2086    0.3296    3.6596 C   0  0  1  0  0  0  0  0  0  0  0  0
    2.8927    0.8773    4.9014 C   0  0  0  0  0  0  0  0  0  0  0  0
    4.3963    0.7477    4.9676 C   0  0  2  0  0  0  0  0  0  0  0  0
    4.8575    1.6577    4.5672 H   0  0  0  0  0  0  0  0  0  0  0  0
    5.0277   -0.4868    4.3639 C   0  0  1  0  0  0  0  0  0  0  0  0
    4.9935   -1.2522    5.2026 H   0  0  0  0  0  0  0  0  0  0  0  0
    4.2915   -1.1520    3.2252 C   0  0  2  0  0  0  0  0  0  0  0  0
    4.7391   -0.7682    1.8220 C   0  0  0  0  0  0  0  0  0  0  0  0
    6.2574   -0.7393    1.6816 C   0  0  0  0  0  0  0  0  0  0  0  0
    6.8231    0.2257    2.7201 C   0  0  1  0  0  0  0  0  0  0  0  0
    6.3739    1.2120    2.5855 H   0  0  0  0  0  0  0  0  0  0  0  0
    6.5211   -0.2830    4.1258 C   0  0  0  0  0  0  0  0  0  0  0  0
    7.2881   -1.5911    4.3732 C   0  0  0  0  0  0  0  0  0  0  0  0
    7.1091    0.7409    5.1143 C   0  0  0  0  0  0  0  0  0  0  0  0
    8.2405    0.3329    2.5475 O   0  0  0  0  0  0  0  0  0  0  0  0
    4.5550   -2.6872    3.3605 C   0  0  0  0  0  0  0  0  0  0  0  0
    4.7029    0.7468    6.3915 O   0  0  0  0  0  0  0  0  0  0  0  0
    0.7386    0.0549    4.1022 C   0  0  0  0  0  0  0  0  0  0  0  0
    1.8720    1.5722   -0.0704 C   0  0  2  0  0  0  0  0  0  0  0  0
    1.4544    0.8970   -0.8556 H   0  0  0  0  0  0  0  0  0  0  0  0
    3.2107    2.0809   -0.5667 C   0  0  0  0  0  0  0  0  0  0  0  0
    3.4426    2.1806    2.5849 C   0  0  0  0  0  0  0  0  0  0  0  0
   -0.5322    1.9768    0.2137 C   0  0  0  0  0  0  0  0  0  0  0  0
   -0.6222    0.7845    0.0398 O   0  0  0  0  0  0  0  0  0  0  0  0
    4.4388    3.5954   -2.1163 C   0  0  0  0  0  0  0  0  0  0  0  0
    1.4960    1.9052   -2.6971 H   0  0  0  0  0  0  0  0  0  0  0  0
    2.3710    3.0103   -3.7841 H   0  0  0  0  0  0  0  0  0  0  0  0
    3.1406    1.4990   -3.2437 H   0  0  0  0  0  0  0  0  0  0  0  0
    2.6082    4.7145   -0.4743 H   0  0  0  0  0  0  0  0  0  0  0  0
    2.0618    4.9037   -2.1515 H   0  0  0  0  0  0  0  0  0  0  0  0
    0.2635    3.2572   -1.7949 H   0  0  0  0  0  0  0  0  0  0  0  0
    0.1709    4.5341   -0.5803 H   0  0  0  0  0  0  0  0  0  0  0  0
    1.9630    3.9202    1.5209 H   0  0  0  0  0  0  0  0  0  0  0  0
    0.2151    4.0527    1.6813 H   0  0  0  0  0  0  0  0  0  0  0  0
    0.0481    1.8548    2.6920 H   0  0  0  0  0  0  0  0  0  0  0  0
    1.1552    2.8836    3.6246 H   0  0  0  0  0  0  0  0  0  0  0  0
    2.0020   -0.9282   -0.0550 H   0  0  0  0  0  0  0  0  0  0  0  0
    1.0839   -1.9087    2.3026 H   0  0  0  0  0  0  0  0  0  0  0  0
    2.6337   -2.4833    1.7072 H   0  0  0  0  0  0  0  0  0  0  0  0
    2.4656    0.3444    5.7799 H   0  0  0  0  0  0  0  0  0  0  0  0
    2.6001    1.9265    5.0565 H   0  0  0  0  0  0  0  0  0  0  0  0
    4.3565   -1.5329    1.1213 H   0  0  0  0  0  0  0  0  0  0  0  0
    4.3249    0.1782    1.5067 H   0  0  0  0  0  0  0  0  0  0  0  0
    6.6758   -1.7322    1.7938 H   0  0  0  0  0  0  0  0  0  0  0  0
    6.5106   -0.3679    0.6807 H   0  0  0  0  0  0  0  0  0  0  0  0
    8.3568   -1.3821    4.4215 H   0  0  0  0  0  0  0  0  0  0  0  0
    6.9610   -2.0315    5.3151 H   0  0  0  0  0  0  0  0  0  0  0  0
    7.0906   -2.2877    3.5584 H   0  0  0  0  0  0  0  0  0  0  0  0
    6.6446    1.7131    4.9496 H   0  0  0  0  0  0  0  0  0  0  0  0
    6.9140    0.4134    6.1355 H   0  0  0  0  0  0  0  0  0  0  0  0
    8.1848    0.8209    4.9576 H   0  0  0  0  0  0  0  0  0  0  0  0
    8.5071    0.6604    1.6776 H   0  0  0  0  0  0  0  0  0  0  0  0
    3.9504   -3.2253    2.6304 H   0  0  0  0  0  0  0  0  0  0  0  0
    5.6102   -2.8920    3.1801 H   0  0  0  0  0  0  0  0  0  0  0  0
    4.2879   -3.0145    4.3653 H   0  0  0  0  0  0  0  0  0  0  0  0
    4.3400    1.5032    6.8725 H   0  0  0  0  0  0  0  0  0  0  0  0
    0.7374   -0.6126    4.9640 H   0  0  0  0  0  0  0  0  0  0  0  0
    0.2582    0.9958    4.3707 H   0  0  0  0  0  0  0  0  0  0  0  0
    0.1930   -0.4105    3.2814 H   0  0  0  0  0  0  0  0  0  0  0  0
    3.7628    2.6053    0.2084 H   0  0  0  0  0  0  0  0  0  0  0  0
    3.8222    1.2281   -0.8926 H   0  0  0  0  0  0  0  0  0  0  0  0
    3.4324    2.9097    1.7748 H   0  0  0  0  0  0  0  0  0  0  0  0
    3.4893    2.7010    3.5415 H   0  0  0  0  0  0  0  0  0  0  0  0
    4.3135    1.5335    2.4804 H   0  0  0  0  0  0  0  0  0  0  0  0
    5.0983    2.7731   -2.3935 H   0  0  0  0  0  0  0  0  0  0  0  0
    4.3409    4.2820   -2.9572 H   0  0  0  0  0  0  0  0  0  0  0  0
    4.8587    4.1256   -1.2615 H   0  0  0  0  0  0  0  0  0  0  0  0
   -1.6372    2.7099    0.4222 O   0  5  0  0  0  0  0  0  0  0  0  0
  1  2  1  0  0  0  0
  1 39  1  0  0  0  0
  1 40  1  0  0  0  0
  1 41  1  0  0  0  0
  2 34  1  0  0  0  0
  2  3  1  0  0  0  0
  2 38  1  0  0  0  0
  3  4  1  0  0  0  0
  3 42  1  0  0  0  0
  3 43  1  0  0  0  0
  4  5  1  0  0  0  0
  4 44  1  0  0  0  0
  4 45  1  0  0  0  0
  5 32  1  0  0  0  0
  5  6  1  0  0  0  0
  5 36  1  1  0  0  0
  6  7  1  0  0  0  0
  6 46  1  0  0  0  0
  6 47  1  0  0  0  0
  7  8  1  0  0  0  0
  7 48  1  0  0  0  0
  7 49  1  0  0  0  0
  8 14  1  0  0  0  0
  8  9  1  0  0  0  0
  8 35  1  1  0  0  0
  9 10  2  0  0  0  0
  9 32  1  0  0  0  0
 10 11  1  0  0  0  0
 10 50  1  0  0  0  0
 11 12  1  0  0  0  0
 11 51  1  0  0  0  0
 11 52  1  0  0  0  0
 12 13  1  1  0  0  0
 12 20  1  0  0  0  0
 12 14  1  0  0  0  0
 14 15  1  0  0  0  0
 14 31  1  1  0  0  0
 15 16  1  0  0  0  0
 15 53  1  0  0  0  0
 15 54  1  0  0  0  0
 16 17  1  6  0  0  0
 16 18  1  0  0  0  0
 16 30  1  0  0  0  0
 18 19  1  1  0  0  0
 18 25  1  0  0  0  0
 18 20  1  0  0  0  0
 20 21  1  0  0  0  0
 20 29  1  1  0  0  0
 21 22  1  0  0  0  0
 21 55  1  0  0  0  0
 21 56  1  0  0  0  0
 22 23  1  0  0  0  0
 22 57  1  0  0  0  0
 22 58  1  0  0  0  0
 23 24  1  6  0  0  0
 23 25  1  0  0  0  0
 23 28  1  0  0  0  0
 25 26  1  0  0  0  0
 25 27  1  0  0  0  0
 26 59  1  0  0  0  0
 26 60  1  0  0  0  0
 26 61  1  0  0  0  0
 27 62  1  0  0  0  0
 27 63  1  0  0  0  0
 27 64  1  0  0  0  0
 28 65  1  0  0  0  0
 29 66  1  0  0  0  0
 29 67  1  0  0  0  0
 29 68  1  0  0  0  0
 30 69  1  0  0  0  0
 31 70  1  0  0  0  0
 31 71  1  0  0  0  0
 31 72  1  0  0  0  0
 32 33  1  6  0  0  0
 32 34  1  0  0  0  0
 34 73  1  0  0  0  0
 34 74  1  0  0  0  0
 35 75  1  0  0  0  0
 35 76  1  0  0  0  0
 35 77  1  0  0  0  0
 36 37  2  0  0  0  0
 36 81  1  0  0  0  0
 38 78  1  0  0  0  0
 38 79  1  0  0  0  0
 38 80  1  0  0  0  0
M  CHG  1  81  -1
M  END
>  <cansmi>
O[C@@H]1C[C@]2(C)[C@H]([C@@]3([C@H]1C(C)(C)[C@H](CC3)O)C)CC=C1[C@@]2(C)CC[C@@]2([C@H]1CC(CC2)(C)C)C(=O)[O-]

>  <HBA2>
4

>  <HBD>
2

>  <logP>
4.8697

>  <TPSA>
80.59

>  <MW>
471.692

$$$$
ZINC04349905
 OpenBabel02121623173D

 81 85  0  0  1  0  0  0  0  0999 V2000
    0.6116    4.1692   -1.6814 C   0  0  0  0  0  0  0  0  0  0  0  0
   -0.7285    3.4575   -1.4982 C   0  0  0  0  0  0  0  0  0  0  0  0
   -0.5288    1.9436   -1.4682 C   0  0  0  0  0  0  0  0  0  0  0  0
    0.2782    1.5257   -0.2455 C   0  0  0  0  0  0  0  0  0  0  0  0
   -0.3971    1.9904    1.0439 C   0  0  2  0  0  0  0  0  0  0  0  0
   -1.7300    1.2777    1.2334 C   0  0  0  0  0  0  0  0  0  0  0  0
   -2.3484    1.6121    2.5831 C   0  0  0  0  0  0  0  0  0  0  0  0
   -2.4969    3.1018    2.8235 C   0  0  2  0  0  0  0  0  0  0  0  0
   -1.3771    3.9233    2.2625 C   0  0  0  0  0  0  0  0  0  0  0  0
   -1.0151    5.0516    2.8143 C   0  0  0  0  0  0  0  0  0  0  0  0
   -1.6107    5.6541    4.0427 C   0  0  0  0  0  0  0  0  0  0  0  0
   -2.8270    4.8775    4.5334 C   0  0  1  0  0  0  0  0  0  0  0  0
   -3.6632    5.2076    3.8788 H   0  0  0  0  0  0  0  0  0  0  0  0
   -2.6248    3.3871    4.3359 C   0  0  1  0  0  0  0  0  0  0  0  0
   -3.7627    2.5626    4.9118 C   0  0  0  0  0  0  0  0  0  0  0  0
   -4.2573    3.0158    6.2705 C   0  0  2  0  0  0  0  0  0  0  0  0
   -5.2352    2.5223    6.4432 H   0  0  0  0  0  0  0  0  0  0  0  0
   -4.4378    4.5181    6.4366 C   0  0  1  0  0  0  0  0  0  0  0  0
   -4.4313    4.6790    7.5555 H   0  0  0  0  0  0  0  0  0  0  0  0
   -3.2376    5.2968    5.9345 C   0  0  2  0  0  0  0  0  0  0  0  0
   -3.5030    6.8124    5.9315 C   0  0  0  0  0  0  0  0  0  0  0  0
   -4.7903    7.1229    5.1769 C   0  0  0  0  0  0  0  0  0  0  0  0
   -5.9506    6.5042    5.9522 C   0  0  1  0  0  0  0  0  0  0  0  0
   -6.8911    6.7617    5.4577 H   0  0  0  0  0  0  0  0  0  0  0  0
   -5.8080    4.9819    5.9907 C   0  0  0  0  0  0  0  0  0  0  0  0
   -6.8490    4.4735    7.0178 C   0  0  0  0  0  0  0  0  0  0  0  0
   -6.2087    4.4217    4.6251 C   0  0  0  0  0  0  0  0  0  0  0  0
   -5.9719    7.0172    7.2855 O   0  0  0  0  0  0  0  0  0  0  0  0
   -2.0902    5.1118    6.9503 C   0  0  0  0  0  0  0  0  0  0  0  0
   -3.3930    2.5086    7.2984 O   0  0  0  0  0  0  0  0  0  0  0  0
   -1.3045    2.9307    4.9869 C   0  0  0  0  0  0  0  0  0  0  0  0
   -0.6155    3.4964    1.0245 C   0  0  2  0  0  0  0  0  0  0  0  0
    0.3576    3.9985    1.0310 H   0  0  0  0  0  0  0  0  0  0  0  0
   -1.4041    3.9217   -0.2105 C   0  0  0  0  0  0  0  0  0  0  0  0
   -3.7837    3.5405    2.1134 C   0  0  0  0  0  0  0  0  0  0  0  0
    0.5279    1.6459    2.1879 C   0  0  0  0  0  0  0  0  0  0  0  0
    0.9565    2.5206    2.9027 O   0  0  0  0  0  0  0  0  0  0  0  0
   -1.6384    3.8106   -2.6854 C   0  0  0  0  0  0  0  0  0  0  0  0
    1.0657    3.8528   -2.6204 H   0  0  0  0  0  0  0  0  0  0  0  0
    0.4509    5.2471   -1.7005 H   0  0  0  0  0  0  0  0  0  0  0  0
    1.2740    3.9152   -0.8538 H   0  0  0  0  0  0  0  0  0  0  0  0
   -0.0009    1.6328   -2.3750 H   0  0  0  0  0  0  0  0  0  0  0  0
   -1.5037    1.4495   -1.4507 H   0  0  0  0  0  0  0  0  0  0  0  0
    0.3543    0.4331   -0.2228 H   0  0  0  0  0  0  0  0  0  0  0  0
    1.2856    1.9363   -0.2936 H   0  0  0  0  0  0  0  0  0  0  0  0
   -1.5680    0.1953    1.1755 H   0  0  0  0  0  0  0  0  0  0  0  0
   -2.4176    1.5619    0.4346 H   0  0  0  0  0  0  0  0  0  0  0  0
   -1.7951    1.1191    3.3704 H   0  0  0  0  0  0  0  0  0  0  0  0
   -3.3628    1.1750    2.5945 H   0  0  0  0  0  0  0  0  0  0  0  0
   -0.2139    5.5980    2.3412 H   0  0  0  0  0  0  0  0  0  0  0  0
   -1.9277    6.6714    3.7971 H   0  0  0  0  0  0  0  0  0  0  0  0
   -0.8448    5.7053    4.8064 H   0  0  0  0  0  0  0  0  0  0  0  0
   -4.5952    2.4694    4.2184 H   0  0  0  0  0  0  0  0  0  0  0  0
   -3.3839    1.5223    5.0322 H   0  0  0  0  0  0  0  0  0  0  0  0
   -2.6636    7.3204    5.4569 H   0  0  0  0  0  0  0  0  0  0  0  0
   -3.5843    7.1565    6.9638 H   0  0  0  0  0  0  0  0  0  0  0  0
   -4.7459    6.7218    4.1684 H   0  0  0  0  0  0  0  0  0  0  0  0
   -4.9283    8.2061    5.1229 H   0  0  0  0  0  0  0  0  0  0  0  0
   -6.6175    4.8811    8.0019 H   0  0  0  0  0  0  0  0  0  0  0  0
   -7.8452    4.7968    6.7158 H   0  0  0  0  0  0  0  0  0  0  0  0
   -6.8172    3.3848    7.0588 H   0  0  0  0  0  0  0  0  0  0  0  0
   -6.2244    3.3327    4.6694 H   0  0  0  0  0  0  0  0  0  0  0  0
   -7.1999    4.7887    4.3584 H   0  0  0  0  0  0  0  0  0  0  0  0
   -5.4876    4.7445    3.8741 H   0  0  0  0  0  0  0  0  0  0  0  0
   -6.0606    7.9788    7.3356 H   0  0  0  0  0  0  0  0  0  0  0  0
   -1.9393    4.0488    7.1384 H   0  0  0  0  0  0  0  0  0  0  0  0
   -1.1742    5.5428    6.5462 H   0  0  0  0  0  0  0  0  0  0  0  0
   -2.3468    5.6130    7.8836 H   0  0  0  0  0  0  0  0  0  0  0  0
   -3.3387    1.5436    7.3258 H   0  0  0  0  0  0  0  0  0  0  0  0
   -0.4940    3.5822    4.6600 H   0  0  0  0  0  0  0  0  0  0  0  0
   -1.3973    2.9826    6.0717 H   0  0  0  0  0  0  0  0  0  0  0  0
   -1.0884    1.9046    4.6894 H   0  0  0  0  0  0  0  0  0  0  0  0
   -1.4930    5.0117   -0.2256 H   0  0  0  0  0  0  0  0  0  0  0  0
   -2.4090    3.4947   -0.1737 H   0  0  0  0  0  0  0  0  0  0  0  0
   -3.6835    3.3697    1.0416 H   0  0  0  0  0  0  0  0  0  0  0  0
   -4.6250    2.9628    2.4963 H   0  0  0  0  0  0  0  0  0  0  0  0
   -3.9572    4.6007    2.2978 H   0  0  0  0  0  0  0  0  0  0  0  0
   -2.6005    3.3123   -2.5665 H   0  0  0  0  0  0  0  0  0  0  0  0
   -1.7897    4.8895   -2.7190 H   0  0  0  0  0  0  0  0  0  0  0  0
   -1.1703    3.4803   -3.6127 H   0  0  0  0  0  0  0  0  0  0  0  0
    0.8735    0.3680    2.4100 O   0  5  0  0  0  0  0  0  0  0  0  0
  1  2  1  0  0  0  0
  1 39  1  0  0  0  0
  1 40  1  0  0  0  0
  1 41  1  0  0  0  0
  2 34  1  0  0  0  0
  2  3  1  0  0  0  0
  2 38  1  0  0  0  0
  3  4  1  0  0  0  0
  3 42  1  0  0  0  0
  3 43  1  0  0  0  0
  4  5  1  0  0  0  0
  4 44  1  0  0  0  0
  4 45  1  0  0  0  0
  5 32  1  0  0  0  0
  5  6  1  0  0  0  0
  5 36  1  1  0  0  0
  6  7  1  0  0  0  0
  6 46  1  0  0  0  0
  6 47  1  0  0  0  0
  7  8  1  0  0  0  0
  7 48  1  0  0  0  0
  7 49  1  0  0  0  0
  8 14  1  0  0  0  0
  8  9  1  0  0  0  0
  8 35  1  6  0  0  0
  9 10  2  0  0  0  0
  9 32  1  0  0  0  0
 10 11  1  0  0  0  0
 10 50  1  0  0  0  0
 11 12  1  0  0  0  0
 11 51  1  0  0  0  0
 11 52  1  0  0  0  0
 12 13  1  6  0  0  0
 12 20  1  0  0  0  0
 12 14  1  0  0  0  0
 14 15  1  0  0  0  0
 14 31  1  1  0  0  0
 15 16  1  0  0  0  0
 15 53  1  0  0  0  0
 15 54  1  0  0  0  0
 16 17  1  1  0  0  0
 16 18  1  0  0  0  0
 16 30  1  0  0  0  0
 18 19  1  1  0  0  0
 18 25  1  0  0  0  0
 18 20  1  0  0  0  0
 20 21  1  0  0  0  0
 20 29  1  1  0  0  0
 21 22  1  0  0  0  0
 21 55  1  0  0  0  0
 21 56  1  0  0  0  0
 22 23  1  0  0  0  0
 22 57  1  0  0  0  0
 22 58  1  0  0  0  0
 23 24  1  6  0  0  0
 23 25  1  0  0  0  0
 23 28  1  0  0  0  0
 25 26  1  0  0  0  0
 25 27  1  0  0  0  0
 26 59  1  0  0  0  0
 26 60  1  0  0  0  0
 26 61  1  0  0  0  0
 27 62  1  0  0  0  0
 27 63  1  0  0  0  0
 27 64  1  0  0  0  0
 28 65  1  0  0  0  0
 29 66  1  0  0  0  0
 29 67  1  0  0  0  0
 29 68  1  0  0  0  0
 30 69  1  0  0  0  0
 31 70  1  0  0  0  0
 31 71  1  0  0  0  0
 31 72  1  0  0  0  0
 32 33  1  6  0  0  0
 32 34  1  0  0  0  0
 34 73  1  0  0  0  0
 34 74  1  0  0  0  0
 35 75  1  0  0  0  0
 35 76  1  0  0  0  0
 35 77  1  0  0  0  0
 36 37  2  0  0  0  0
 36 81  1  0  0  0  0
 38 78  1  0  0  0  0
 38 79  1  0  0  0  0
 38 80  1  0  0  0  0
M  CHG  1  81  -1
M  END
>  <cansmi>
O[C@@H]1C[C@]2(C)[C@@H]([C@@]3([C@H]1C(C)(C)[C@H](CC3)O)C)CC=C1[C@@]2(C)CC[C@@]2([C@H]1CC(CC2)(C)C)C(=O)[O-]

>  <HBA2>
4

>  <HBD>
2

>  <logP>
4.8697

>  <TPSA>
80.59

>  <MW>
471.692

$$$$
ZINC12496083
 OpenBabel02121623173D

 30 32  0  0  0  0  0  0  0  0999 V2000
   -0.0184    1.5028    0.0103 C   0  0  0  0  0  0  0  0  0  0  0  0
    0.0021   -0.0041    0.0020 C   0  0  0  0  0  0  0  0  0  0  0  0
    0.0060   -0.6712   -1.1131 N   0  0  0  0  0  0  0  0  0  0  0  0
   -0.0149   -2.1245   -1.1872 C   0  0  0  0  0  0  0  0  0  0  0  0
    0.7509   -2.7893   -0.0420 C   0  0  0  0  0  0  0  0  0  0  0  0
    0.3758   -2.1012    1.2456 C   0  0  0  0  0  0  0  0  0  0  0  0
    0.0244   -0.7721    1.2546 C   0  0  0  0  0  0  0  0  0  0  0  0
   -0.2653   -0.3900    2.5406 N   0  0  0  0  0  0  0  0  0  0  0  0
   -0.5450    0.4958    2.8197 H   0  0  0  0  0  0  0  0  0  0  0  0
   -0.0931   -1.4703    3.3620 C   0  0  0  0  0  0  0  0  0  0  0  0
    0.3059   -2.5678    2.5549 C   0  0  0  0  0  0  0  0  0  0  0  0
    0.5587   -3.8256    3.1259 C   0  0  0  0  0  0  0  0  0  0  0  0
    0.3888   -3.9429    4.4802 C   0  0  0  0  0  0  0  0  0  0  0  0
   -0.0162   -2.8730    5.2711 C   0  0  0  0  0  0  0  0  0  0  0  0
   -0.2515   -1.6173    4.7369 C   0  0  0  0  0  0  0  0  0  0  0  0
   -0.1646   -3.0617    6.6083 O   0  0  0  0  0  0  0  0  0  0  0  0
    0.1113   -4.3697    7.1135 C   0  0  0  0  0  0  0  0  0  0  0  0
    1.0042    1.8801    0.0026 H   0  0  0  0  0  0  0  0  0  0  0  0
   -0.5455    1.8639   -0.8728 H   0  0  0  0  0  0  0  0  0  0  0  0
   -0.5286    1.8543    0.9071 H   0  0  0  0  0  0  0  0  0  0  0  0
   -1.0507   -2.4628   -1.1603 H   0  0  0  0  0  0  0  0  0  0  0  0
    0.4291   -2.4345   -2.1332 H   0  0  0  0  0  0  0  0  0  0  0  0
    0.4823   -3.8441    0.0146 H   0  0  0  0  0  0  0  0  0  0  0  0
    1.8230   -2.6897   -0.2117 H   0  0  0  0  0  0  0  0  0  0  0  0
    0.8733   -4.6646    2.5231 H   0  0  0  0  0  0  0  0  0  0  0  0
    0.5751   -4.8979    4.9490 H   0  0  0  0  0  0  0  0  0  0  0  0
   -0.5624   -0.7921    5.3604 H   0  0  0  0  0  0  0  0  0  0  0  0
   -0.5558   -5.0902    6.6403 H   0  0  0  0  0  0  0  0  0  0  0  0
    1.1458   -4.6333    6.8936 H   0  0  0  0  0  0  0  0  0  0  0  0
   -0.0456   -4.3832    8.1921 H   0  0  0  0  0  0  0  0  0  0  0  0
  1  2  1  0  0  0  0
  1 18  1  0  0  0  0
  1 19  1  0  0  0  0
  1 20  1  0  0  0  0
  2  7  1  0  0  0  0
  2  3  2  0  0  0  0
  3  4  1  0  0  0  0
  4  5  1  0  0  0  0
  4 21  1  0  0  0  0
  4 22  1  0  0  0  0
  5  6  1  0  0  0  0
  5 23  1  0  0  0  0
  5 24  1  0  0  0  0
  6 11  1  0  0  0  0
  6  7  2  0  0  0  0
  7  8  1  0  0  0  0
  8  9  1  0  0  0  0
  8 10  1  0  0  0  0
 10 15  2  0  0  0  0
 10 11  1  0  0  0  0
 11 12  2  0  0  0  0
 12 13  1  0  0  0  0
 12 25  1  0  0  0  0
 13 14  2  0  0  0  0
 13 26  1  0  0  0  0
 14 15  1  0  0  0  0
 14 16  1  0  0  0  0
 15 27  1  0  0  0  0
 16 17  1  0  0  0  0
 17 28  1  0  0  0  0
 17 29  1  0  0  0  0
 17 30  1  0  0  0  0
M  END
>  <cansmi>
COc1ccc2c(c1)[nH]c1c2CCN=C1C

>  <HBA2>
2

>  <HBD>
1

>  <logP>
1.9772

>  <TPSA>
37.38

>  <MW>
214.263

$$$$
ZINC03894278
 OpenBabel02121623173D

 40 42  0  0  1  0  0  0  0  0999 V2000
    2.4744    0.0887   -0.0222 C   0  0  0  0  0  0  0  0  0  0  0  0
    2.3850    1.4444   -0.0150 C   0  0  0  0  0  0  0  0  0  0  0  0
    1.1184    2.0632    0.0025 C   0  0  0  0  0  0  0  0  0  0  0  0
    1.0523    3.2795    0.0092 O   0  0  0  0  0  0  0  0  0  0  0  0
   -0.0162    1.3468    0.0094 O   0  0  0  0  0  0  0  0  0  0  0  0
    0.0021   -0.0041    0.0020 C   0  0  0  0  0  0  0  0  0  0  0  0
    1.2324   -0.6868   -0.0134 C   0  0  0  0  0  0  0  0  0  0  0  0
    1.2582   -2.0865   -0.0198 C   0  0  0  0  0  0  0  0  0  0  0  0
    0.0731   -2.7902   -0.0108 C   0  0  0  0  0  0  0  0  0  0  0  0
   -1.1480   -2.1101    0.0046 C   0  0  0  0  0  0  0  0  0  0  0  0
   -1.1817   -0.7267    0.0105 C   0  0  0  0  0  0  0  0  0  0  0  0
   -2.3104   -2.8125    0.0138 O   0  0  0  0  0  0  0  0  0  0  0  0
    0.0919   -4.1503   -0.0173 O   0  0  0  0  0  0  0  0  0  0  0  0
    1.3739   -4.7813   -0.0336 C   0  0  1  0  0  0  0  0  0  0  0  0
    1.9690   -4.4170    0.8038 H   0  0  0  0  0  0  0  0  0  0  0  0
    1.1982   -6.2974    0.0864 C   0  0  2  0  0  0  0  0  0  0  0  0
    2.1769   -6.7763    0.1160 H   0  0  0  0  0  0  0  0  0  0  0  0
    0.4125   -6.8099   -1.1245 C   0  0  1  0  0  0  0  0  0  0  0  0
   -0.5843   -6.3689   -1.1256 H   0  0  0  0  0  0  0  0  0  0  0  0
    1.1513   -6.4099   -2.4053 C   0  0  1  0  0  0  0  0  0  0  0  0
    0.5709   -6.7224   -3.2733 H   0  0  0  0  0  0  0  0  0  0  0  0
    1.3288   -4.8895   -2.4290 C   0  0  1  0  0  0  0  0  0  0  0  0
    0.3503   -4.4095   -2.4479 H   0  0  0  0  0  0  0  0  0  0  0  0
    2.0400   -4.4757   -1.2603 O   0  0  0  0  0  0  0  0  0  0  0  0
    2.1186   -4.4873   -3.6762 C   0  0  0  0  0  0  0  0  0  0  0  0
    2.1841   -3.0623   -3.7596 O   0  0  0  0  0  0  0  0  0  0  0  0
    2.4326   -7.0419   -2.4347 O   0  0  0  0  0  0  0  0  0  0  0  0
    0.3053   -8.2333   -1.0572 O   0  0  0  0  0  0  0  0  0  0  0  0
    0.4813   -6.6017    1.2845 O   0  0  0  0  0  0  0  0  0  0  0  0
    3.4356   -0.4037   -0.0344 H   0  0  0  0  0  0  0  0  0  0  0  0
    3.2817    2.0462   -0.0211 H   0  0  0  0  0  0  0  0  0  0  0  0
    2.2016   -2.6121   -0.0313 H   0  0  0  0  0  0  0  0  0  0  0  0
   -2.1299   -0.2097    0.0224 H   0  0  0  0  0  0  0  0  0  0  0  0
   -2.6379   -3.0195    0.8998 H   0  0  0  0  0  0  0  0  0  0  0  0
    3.1278   -4.8944   -3.6141 H   0  0  0  0  0  0  0  0  0  0  0  0
    1.6220   -4.8808   -4.5632 H   0  0  0  0  0  0  0  0  0  0  0  0
    2.6715   -2.7353   -4.5281 H   0  0  0  0  0  0  0  0  0  0  0  0
    2.3950   -8.0081   -2.4174 H   0  0  0  0  0  0  0  0  0  0  0  0
   -0.1476   -8.5567   -0.2663 H   0  0  0  0  0  0  0  0  0  0  0  0
    0.9196   -6.3009    2.0923 H   0  0  0  0  0  0  0  0  0  0  0  0
  1  7  1  0  0  0  0
  1  2  2  0  0  0  0
  1 30  1  0  0  0  0
  2  3  1  0  0  0  0
  2 31  1  0  0  0  0
  3  4  2  0  0  0  0
  3  5  1  0  0  0  0
  5  6  1  0  0  0  0
  6 11  2  0  0  0  0
  6  7  1  0  0  0  0
  7  8  2  0  0  0  0
  8  9  1  0  0  0  0
  8 32  1  0  0  0  0
  9 10  2  0  0  0  0
  9 13  1  0  0  0  0
 10 11  1  0  0  0  0
 10 12  1  0  0  0  0
 11 33  1  0  0  0  0
 12 34  1  0  0  0  0
 13 14  1  0  0  0  0
 14 15  1  1  0  0  0
 14 24  1  0  0  0  0
 14 16  1  0  0  0  0
 16 17  1  1  0  0  0
 16 18  1  0  0  0  0
 16 29  1  0  0  0  0
 18 19  1  6  0  0  0
 18 20  1  0  0  0  0
 18 28  1  0  0  0  0
 20 21  1  6  0  0  0
 20 22  1  0  0  0  0
 20 27  1  0  0  0  0
 22 23  1  6  0  0  0
 22 24  1  0  0  0  0
 22 25  1  0  0  0  0
 25 26  1  0  0  0  0
 25 35  1  0  0  0  0
 25 36  1  0  0  0  0
 26 37  1  0  0  0  0
 27 38  1  0  0  0  0
 28 39  1  0  0  0  0
 29 40  1  0  0  0  0
M  END
>  <cansmi>
OC[C@@H]1O[C@@H](Oc2cc3ccc(=O)oc3cc2O)[C@H]([C@@H]([C@@H]1O)O)O

>  <HBA2>
9

>  <HBD>
5

>  <logP>
-1.3227

>  <TPSA>
149.82

>  <MW>
340.282

$$$$
ZINC18286095
 OpenBabel02121623173D

 27 29  0  0  1  0  0  0  0  0999 V2000
   -0.0167    1.3787    0.0096 C   0  0  0  0  0  0  0  0  0  0  0  0
    1.1697    2.0910    0.0021 C   0  0  0  0  0  0  0  0  0  0  0  0
    2.3767    1.4251   -0.0244 C   0  0  0  0  0  0  0  0  0  0  0  0
    2.4036    0.0278   -0.0374 C   0  0  0  0  0  0  0  0  0  0  0  0
    1.2046   -0.6827   -0.0107 C   0  0  0  0  0  0  0  0  0  0  0  0
    0.0021   -0.0041    0.0020 C   0  0  0  0  0  0  0  0  0  0  0  0
    1.2023   -2.1933    0.0336 C   0  0  0  0  0  0  0  0  0  0  0  0
    2.5122   -2.6647   -0.4417 N   0  0  0  0  0  0  0  0  0  0  0  0
    2.8076   -3.9556   -1.0609 C   0  0  0  0  0  0  0  0  0  0  0  0
    4.2947   -3.9194   -1.4694 C   0  0  0  0  0  0  0  0  0  0  0  0
    4.8536   -2.7493   -0.6271 C   0  0  2  0  0  0  0  0  0  0  0  0
    5.2842   -3.1195    0.3033 H   0  0  0  0  0  0  0  0  0  0  0  0
    3.6444   -1.8935   -0.3464 C   0  0  0  0  0  0  0  0  0  0  0  0
    3.6170   -0.6153   -0.0957 N   0  3  0  0  0  0  0  0  0  0  0  0
    5.8280   -2.0161   -1.3720 O   0  0  0  0  0  0  0  0  0  0  0  0
   -0.9601    1.9042    0.0260 H   0  0  0  0  0  0  0  0  0  0  0  0
    1.1501    3.1707    0.0167 H   0  0  0  0  0  0  0  0  0  0  0  0
    3.3013    1.9832   -0.0355 H   0  0  0  0  0  0  0  0  0  0  0  0
   -0.9268   -0.5550    0.0060 H   0  0  0  0  0  0  0  0  0  0  0  0
    1.0382   -2.5315    1.0568 H   0  0  0  0  0  0  0  0  0  0  0  0
    0.4147   -2.5795   -0.6134 H   0  0  0  0  0  0  0  0  0  0  0  0
    2.6364   -4.7603   -0.3460 H   0  0  0  0  0  0  0  0  0  0  0  0
    2.1819   -4.0989   -1.9418 H   0  0  0  0  0  0  0  0  0  0  0  0
    4.7898   -4.8545   -1.2076 H   0  0  0  0  0  0  0  0  0  0  0  0
    4.3976   -3.7119   -2.5346 H   0  0  0  0  0  0  0  0  0  0  0  0
    6.5996   -2.5382   -1.6311 H   0  0  0  0  0  0  0  0  0  0  0  0
    4.4412   -0.1244    0.0477 H   0  0  0  0  0  0  0  0  0  0  0  0
  1  6  2  0  0  0  0
  1  2  1  0  0  0  0
  1 16  1  0  0  0  0
  2  3  2  0  0  0  0
  2 17  1  0  0  0  0
  3  4  1  0  0  0  0
  3 18  1  0  0  0  0
  4 14  1  0  0  0  0
  4  5  2  0  0  0  0
  5  6  1  0  0  0  0
  5  7  1  0  0  0  0
  6 19  1  0  0  0  0
  7  8  1  0  0  0  0
  7 20  1  0  0  0  0
  7 21  1  0  0  0  0
  8 13  1  0  0  0  0
  8  9  1  0  0  0  0
  9 10  1  0  0  0  0
  9 22  1  0  0  0  0
  9 23  1  0  0  0  0
 10 11  1  0  0  0  0
 10 24  1  0  0  0  0
 10 25  1  0  0  0  0
 11 12  1  1  0  0  0
 11 13  1  0  0  0  0
 11 15  1  0  0  0  0
 13 14  2  0  0  0  0
 14 27  1  0  0  0  0
 15 26  1  0  0  0  0
M  CHG  1  14   1
M  END
>  <cansmi>
O[C@@H]1CCN2C1=[NH+]c1ccccc1C2

>  <HBA2>
2

>  <HBD>
2

>  <logP>
0.8845

>  <TPSA>
37.44

>  <MW>
189.234

$$$$
ZINC48056985
 OpenBabel02121623173D

 44 45  0  0  1  0  0  0  0  0999 V2000
   -0.0173    1.4248    0.0099 C   0  0  0  0  0  0  0  0  0  0  0  0
    0.0021   -0.0041    0.0020 O   0  0  0  0  0  0  0  0  0  0  0  0
   -1.2953   -0.6030    0.0112 C   0  0  2  0  0  0  0  0  0  0  0  0
   -1.8946   -0.1599    0.8065 H   0  0  0  0  0  0  0  0  0  0  0  0
   -1.1608   -2.1089    0.2519 C   0  0  1  0  0  0  0  0  0  0  0  0
   -0.7148   -2.2828    1.2312 H   0  0  0  0  0  0  0  0  0  0  0  0
   -2.5499   -2.7524    0.2004 C   0  0  1  0  0  0  0  0  0  0  0  0
   -3.1675   -2.3513    1.0039 H   0  0  0  0  0  0  0  0  0  0  0  0
   -3.1976   -2.4353   -1.1510 C   0  0  1  0  0  0  0  0  0  0  0  0
   -4.2084   -2.8427   -1.1749 H   0  0  0  0  0  0  0  0  0  0  0  0
   -3.2535   -0.9168   -1.3375 C   0  0  1  0  0  0  0  0  0  0  0  0
   -3.8786   -0.4778   -0.5599 H   0  0  0  0  0  0  0  0  0  0  0  0
   -1.9330   -0.3781   -1.2478 O   0  0  0  0  0  0  0  0  0  0  0  0
   -3.8359   -0.5977   -2.6903 C   0  0  0  0  0  0  0  0  0  0  0  0
   -4.9928   -0.8902   -2.9403 O   0  0  0  0  0  0  0  0  0  0  0  0
   -3.1501   -0.0471   -3.5347 O   0  5  0  0  0  0  0  0  0  0  0  0
   -2.4227   -3.0184   -2.2005 O   0  0  0  0  0  0  0  0  0  0  0  0
   -2.4269   -4.1679    0.3531 O   0  0  0  0  0  0  0  0  0  0  0  0
   -0.3299   -2.6818   -0.7598 O   0  0  0  0  0  0  0  0  0  0  0  0
    1.0599   -2.7021   -0.4279 C   0  0  2  0  0  0  0  0  0  0  0  0
    1.3679   -1.7118   -0.0922 H   0  0  0  0  0  0  0  0  0  0  0  0
    1.8738   -3.0988   -1.6624 C   0  0  1  0  0  0  0  0  0  0  0  0
    1.7365   -2.3521   -2.4445 H   0  0  0  0  0  0  0  0  0  0  0  0
    3.3560   -3.1768   -1.2836 C   0  0  1  0  0  0  0  0  0  0  0  0
    3.7045   -2.1928   -0.9701 H   0  0  0  0  0  0  0  0  0  0  0  0
    3.5254   -4.1716   -0.1312 C   0  0  1  0  0  0  0  0  0  0  0  0
    4.5694   -4.1923    0.1816 H   0  0  0  0  0  0  0  0  0  0  0  0
    2.6477   -3.7335    1.0441 C   0  0  1  0  0  0  0  0  0  0  0  0
    2.9766   -2.7568    1.3991 H   0  0  0  0  0  0  0  0  0  0  0  0
    1.2868   -3.6511    0.6161 O   0  0  0  0  0  0  0  0  0  0  0  0
    2.7637   -4.7393    2.1603 C   0  0  0  0  0  0  0  0  0  0  0  0
    3.8295   -4.8959    2.7314 O   0  0  0  0  0  0  0  0  0  0  0  0
    1.7919   -5.3964    2.4923 O   0  5  0  0  0  0  0  0  0  0  0  0
    3.1307   -5.4751   -0.5637 O   0  0  0  0  0  0  0  0  0  0  0  0
    4.1152   -3.6157   -2.4119 O   0  0  0  0  0  0  0  0  0  0  0  0
    1.4329   -4.3729   -2.1358 O   0  0  0  0  0  0  0  0  0  0  0  0
    1.0053    1.8021    0.0021 H   0  0  0  0  0  0  0  0  0  0  0  0
   -0.5445    1.7859   -0.8732 H   0  0  0  0  0  0  0  0  0  0  0  0
   -0.5275    1.7763    0.9067 H   0  0  0  0  0  0  0  0  0  0  0  0
   -2.7756   -2.8570   -3.0862 H   0  0  0  0  0  0  0  0  0  0  0  0
   -3.2701   -4.6407    0.3301 H   0  0  0  0  0  0  0  0  0  0  0  0
    3.2122   -6.1569    0.1172 H   0  0  0  0  0  0  0  0  0  0  0  0
    5.0646   -3.6880   -2.2430 H   0  0  0  0  0  0  0  0  0  0  0  0
    0.5002   -4.3969   -2.3898 H   0  0  0  0  0  0  0  0  0  0  0  0
  1  2  1  0  0  0  0
  1 37  1  0  0  0  0
  1 38  1  0  0  0  0
  1 39  1  0  0  0  0
  2  3  1  0  0  0  0
  3  4  1  1  0  0  0
  3 13  1  0  0  0  0
  3  5  1  0  0  0  0
  5  6  1  1  0  0  0
  5  7  1  0  0  0  0
  5 19  1  0  0  0  0
  7  8  1  1  0  0  0
  7  9  1  0  0  0  0
  7 18  1  0  0  0  0
  9 10  1  6  0  0  0
  9 11  1  0  0  0  0
  9 17  1  0  0  0  0
 11 12  1  1  0  0  0
 11 13  1  0  0  0  0
 11 14  1  0  0  0  0
 14 15  2  0  0  0  0
 14 16  1  0  0  0  0
 17 40  1  0  0  0  0
 18 41  1  0  0  0  0
 19 20  1  0  0  0  0
 20 21  1  1  0  0  0
 20 30  1  0  0  0  0
 20 22  1  0  0  0  0
 22 23  1  6  0  0  0
 22 24  1  0  0  0  0
 22 36  1  0  0  0  0
 24 25  1  1  0  0  0
 24 26  1  0  0  0  0
 24 35  1  0  0  0  0
 26 27  1  1  0  0  0
 26 28  1  0  0  0  0
 26 34  1  0  0  0  0
 28 29  1  1  0  0  0
 28 30  1  0  0  0  0
 28 31  1  0  0  0  0
 31 32  2  0  0  0  0
 31 33  1  0  0  0  0
 34 42  1  0  0  0  0
 35 43  1  0  0  0  0
 36 44  1  0  0  0  0
M  CHG  2  16  -1  33  -1
M  END
>  <cansmi>
CO[C@H]1O[C@@H](C(=O)[O-])[C@H]([C@H]([C@H]1O[C@H]1O[C@@H](C(=O)[O-])[C@H]([C@H]([C@H]1O)O)O)O)O

>  <HBA2>
13

>  <HBD>
5

>  <logP>
-7.2279

>  <TPSA>
218.33

>  <MW>
382.274

$$$$
ZINC48056987
 OpenBabel02121623173D

 44 45  0  0  1  0  0  0  0  0999 V2000
   -0.0173    1.4248    0.0099 C   0  0  0  0  0  0  0  0  0  0  0  0
    0.0021   -0.0041    0.0020 O   0  0  0  0  0  0  0  0  0  0  0  0
   -1.2953   -0.6030    0.0112 C   0  0  1  0  0  0  0  0  0  0  0  0
   -1.8804   -0.2157   -0.8230 H   0  0  0  0  0  0  0  0  0  0  0  0
   -1.1575   -2.1217   -0.1235 C   0  0  1  0  0  0  0  0  0  0  0  0
   -0.6158   -2.3585   -1.0392 H   0  0  0  0  0  0  0  0  0  0  0  0
   -0.3859   -2.6656    1.0828 C   0  0  1  0  0  0  0  0  0  0  0  0
    0.6216   -2.2496    1.0890 H   0  0  0  0  0  0  0  0  0  0  0  0
   -1.1157   -2.2597    2.3670 C   0  0  1  0  0  0  0  0  0  0  0  0
   -0.5442   -2.5952    3.2323 H   0  0  0  0  0  0  0  0  0  0  0  0
   -1.2552   -0.7356    2.4055 C   0  0  1  0  0  0  0  0  0  0  0  0
   -0.2650   -0.2805    2.4298 H   0  0  0  0  0  0  0  0  0  0  0  0
   -1.9547   -0.2928    1.2405 O   0  0  0  0  0  0  0  0  0  0  0  0
   -2.0241   -0.3323    3.6372 C   0  0  0  0  0  0  0  0  0  0  0  0
   -1.5535   -0.5355    4.7434 O   0  0  0  0  0  0  0  0  0  0  0  0
   -3.1168    0.1973    3.5275 O   0  5  0  0  0  0  0  0  0  0  0  0
   -2.4124   -2.8598    2.3893 O   0  0  0  0  0  0  0  0  0  0  0  0
   -0.3143   -4.0905    1.0017 O   0  0  0  0  0  0  0  0  0  0  0  0
   -2.4558   -2.7169   -0.1693 O   0  0  0  0  0  0  0  0  0  0  0  0
   -2.9907   -2.8442   -1.4883 C   0  0  2  0  0  0  0  0  0  0  0  0
   -2.9086   -1.8894   -2.0076 H   0  0  0  0  0  0  0  0  0  0  0  0
   -4.4631   -3.2551   -1.4047 C   0  0  1  0  0  0  0  0  0  0  0  0
   -5.0306   -2.4752   -0.8970 H   0  0  0  0  0  0  0  0  0  0  0  0
   -5.0125   -3.4480   -2.8215 C   0  0  1  0  0  0  0  0  0  0  0  0
   -4.9718   -2.5014   -3.3604 H   0  0  0  0  0  0  0  0  0  0  0  0
   -4.1587   -4.4899   -3.5509 C   0  0  1  0  0  0  0  0  0  0  0  0
   -4.5086   -4.5931   -4.5780 H   0  0  0  0  0  0  0  0  0  0  0  0
   -2.6981   -4.0313   -3.5515 C   0  0  1  0  0  0  0  0  0  0  0  0
   -2.6122   -3.0921   -4.0980 H   0  0  0  0  0  0  0  0  0  0  0  0
   -2.2591   -3.8409   -2.2050 O   0  0  0  0  0  0  0  0  0  0  0  0
   -1.8427   -5.0793   -4.2158 C   0  0  0  0  0  0  0  0  0  0  0  0
   -1.9929   -5.3281   -5.3998 O   0  0  0  0  0  0  0  0  0  0  0  0
   -1.0003   -5.6782   -3.5691 O   0  5  0  0  0  0  0  0  0  0  0  0
   -4.2652   -5.7479   -2.8814 O   0  0  0  0  0  0  0  0  0  0  0  0
   -6.3661   -3.9007   -2.7518 O   0  0  0  0  0  0  0  0  0  0  0  0
   -4.5767   -4.4793   -0.6764 O   0  0  0  0  0  0  0  0  0  0  0  0
    1.0053    1.8021    0.0021 H   0  0  0  0  0  0  0  0  0  0  0  0
   -0.5445    1.7859   -0.8732 H   0  0  0  0  0  0  0  0  0  0  0  0
   -0.5275    1.7763    0.9067 H   0  0  0  0  0  0  0  0  0  0  0  0
   -2.9317   -2.6451    3.1763 H   0  0  0  0  0  0  0  0  0  0  0  0
    0.1619   -4.5028    1.7354 H   0  0  0  0  0  0  0  0  0  0  0  0
   -3.7488   -6.4559   -3.2902 H   0  0  0  0  0  0  0  0  0  0  0  0
   -6.7778   -4.0440   -3.6149 H   0  0  0  0  0  0  0  0  0  0  0  0
   -4.2427   -4.4302    0.2298 H   0  0  0  0  0  0  0  0  0  0  0  0
  1  2  1  0  0  0  0
  1 37  1  0  0  0  0
  1 38  1  0  0  0  0
  1 39  1  0  0  0  0
  2  3  1  0  0  0  0
  3  4  1  6  0  0  0
  3 13  1  0  0  0  0
  3  5  1  0  0  0  0
  5  6  1  6  0  0  0
  5  7  1  0  0  0  0
  5 19  1  0  0  0  0
  7  8  1  1  0  0  0
  7  9  1  0  0  0  0
  7 18  1  0  0  0  0
  9 10  1  1  0  0  0
  9 11  1  0  0  0  0
  9 17  1  0  0  0  0
 11 12  1  1  0  0  0
 11 13  1  0  0  0  0
 11 14  1  0  0  0  0
 14 15  2  0  0  0  0
 14 16  1  0  0  0  0
 17 40  1  0  0  0  0
 18 41  1  0  0  0  0
 19 20  1  0  0  0  0
 20 21  1  6  0  0  0
 20 30  1  0  0  0  0
 20 22  1  0  0  0  0
 22 23  1  1  0  0  0
 22 24  1  0  0  0  0
 22 36  1  0  0  0  0
 24 25  1  6  0  0  0
 24 26  1  0  0  0  0
 24 35  1  0  0  0  0
 26 27  1  6  0  0  0
 26 28  1  0  0  0  0
 26 34  1  0  0  0  0
 28 29  1  6  0  0  0
 28 30  1  0  0  0  0
 28 31  1  0  0  0  0
 31 32  2  0  0  0  0
 31 33  1  0  0  0  0
 34 42  1  0  0  0  0
 35 43  1  0  0  0  0
 36 44  1  0  0  0  0
M  CHG  2  16  -1  33  -1
M  END
>  <cansmi>
CO[C@@H]1O[C@@H](C(=O)[O-])[C@H]([C@H]([C@H]1O[C@H]1O[C@@H](C(=O)[O-])[C@H]([C@H]([C@H]1O)O)O)O)O

>  <HBA2>
13

>  <HBD>
5

>  <logP>
-7.2279

>  <TPSA>
218.33

>  <MW>
382.274

$$$$
ZINC48056990
 OpenBabel02121623173D

 44 45  0  0  1  0  0  0  0  0999 V2000
   -2.3093    1.4706    2.3310 C   0  0  0  0  0  0  0  0  0  0  0  0
   -1.4747    0.4494    1.7811 O   0  0  0  0  0  0  0  0  0  0  0  0
   -2.1932   -0.6698    1.2585 C   0  0  2  0  0  0  0  0  0  0  0  0
   -2.8523   -1.0704    2.0287 H   0  0  0  0  0  0  0  0  0  0  0  0
   -1.2035   -1.7523    0.8199 C   0  0  2  0  0  0  0  0  0  0  0  0
   -0.5180   -1.3406    0.0792 H   0  0  0  0  0  0  0  0  0  0  0  0
   -1.9779   -2.9227    0.2060 C   0  0  1  0  0  0  0  0  0  0  0  0
   -2.6273   -3.3662    0.9608 H   0  0  0  0  0  0  0  0  0  0  0  0
   -2.8262   -2.4041   -0.9592 C   0  0  1  0  0  0  0  0  0  0  0  0
   -3.4228   -3.2202   -1.3669 H   0  0  0  0  0  0  0  0  0  0  0  0
   -3.7533   -1.2964   -0.4519 C   0  0  1  0  0  0  0  0  0  0  0  0
   -4.4329   -1.7053    0.2958 H   0  0  0  0  0  0  0  0  0  0  0  0
   -2.9714   -0.2538    0.1345 O   0  0  0  0  0  0  0  0  0  0  0  0
   -4.5495   -0.7405   -1.6043 C   0  0  0  0  0  0  0  0  0  0  0  0
   -5.3540   -1.4475   -2.1867 O   0  0  0  0  0  0  0  0  0  0  0  0
   -4.3891    0.4164   -1.9541 O   0  5  0  0  0  0  0  0  0  0  0  0
   -1.9705   -1.8830   -1.9781 O   0  0  0  0  0  0  0  0  0  0  0  0
   -1.0580   -3.9068   -0.2710 O   0  0  0  0  0  0  0  0  0  0  0  0
   -0.4632   -2.2100    1.9533 O   0  0  0  0  0  0  0  0  0  0  0  0
    0.9543   -2.1658    1.7781 C   0  0  2  0  0  0  0  0  0  0  0  0
    1.2183   -2.6350    0.8303 H   0  0  0  0  0  0  0  0  0  0  0  0
    1.6343   -2.9163    2.9261 C   0  0  1  0  0  0  0  0  0  0  0  0
    1.3359   -3.9644    2.9035 H   0  0  0  0  0  0  0  0  0  0  0  0
    3.1540   -2.8132    2.7640 C   0  0  1  0  0  0  0  0  0  0  0  0
    3.4556   -3.3004    1.8368 H   0  0  0  0  0  0  0  0  0  0  0  0
    3.5525   -1.3348    2.7192 C   0  0  1  0  0  0  0  0  0  0  0  0
    4.6258   -1.2519    2.5485 H   0  0  0  0  0  0  0  0  0  0  0  0
    2.7984   -0.6454    1.5791 C   0  0  1  0  0  0  0  0  0  0  0  0
    3.0866   -1.0946    0.6287 H   0  0  0  0  0  0  0  0  0  0  0  0
    1.3919   -0.8054    1.7745 O   0  0  0  0  0  0  0  0  0  0  0  0
    3.1404    0.8222    1.5655 C   0  0  0  0  0  0  0  0  0  0  0  0
    4.2765    1.1810    1.3066 O   0  0  0  0  0  0  0  0  0  0  0  0
    2.2810    1.6507    1.8134 O   0  5  0  0  0  0  0  0  0  0  0  0
    3.2168   -0.7119    3.9607 O   0  0  0  0  0  0  0  0  0  0  0  0
    3.7971   -3.4501    3.8698 O   0  0  0  0  0  0  0  0  0  0  0  0
    1.2454   -2.3359    4.1727 O   0  0  0  0  0  0  0  0  0  0  0  0
   -1.6881    2.2387    2.7916 H   0  0  0  0  0  0  0  0  0  0  0  0
   -2.9092    1.9161    1.5374 H   0  0  0  0  0  0  0  0  0  0  0  0
   -2.9673    1.0360    3.0835 H   0  0  0  0  0  0  0  0  0  0  0  0
   -2.4416   -1.5364   -2.7482 H   0  0  0  0  0  0  0  0  0  0  0  0
   -1.4806   -4.6779   -0.6733 H   0  0  0  0  0  0  0  0  0  0  0  0
    3.4419    0.2276    4.0029 H   0  0  0  0  0  0  0  0  0  0  0  0
    4.7629   -3.4225    3.8323 H   0  0  0  0  0  0  0  0  0  0  0  0
    0.2932   -2.3630    4.3391 H   0  0  0  0  0  0  0  0  0  0  0  0
  1  2  1  0  0  0  0
  1 37  1  0  0  0  0
  1 38  1  0  0  0  0
  1 39  1  0  0  0  0
  2  3  1  0  0  0  0
  3  4  1  1  0  0  0
  3 13  1  0  0  0  0
  3  5  1  0  0  0  0
  5  6  1  6  0  0  0
  5  7  1  0  0  0  0
  5 19  1  0  0  0  0
  7  8  1  1  0  0  0
  7  9  1  0  0  0  0
  7 18  1  0  0  0  0
  9 10  1  6  0  0  0
  9 11  1  0  0  0  0
  9 17  1  0  0  0  0
 11 12  1  1  0  0  0
 11 13  1  0  0  0  0
 11 14  1  0  0  0  0
 14 15  2  0  0  0  0
 14 16  1  0  0  0  0
 17 40  1  0  0  0  0
 18 41  1  0  0  0  0
 19 20  1  0  0  0  0
 20 21  1  6  0  0  0
 20 30  1  0  0  0  0
 20 22  1  0  0  0  0
 22 23  1  6  0  0  0
 22 24  1  0  0  0  0
 22 36  1  0  0  0  0
 24 25  1  6  0  0  0
 24 26  1  0  0  0  0
 24 35  1  0  0  0  0
 26 27  1  6  0  0  0
 26 28  1  0  0  0  0
 26 34  1  0  0  0  0
 28 29  1  6  0  0  0
 28 30  1  0  0  0  0
 28 31  1  0  0  0  0
 31 32  2  0  0  0  0
 31 33  1  0  0  0  0
 34 42  1  0  0  0  0
 35 43  1  0  0  0  0
 36 44  1  0  0  0  0
M  CHG  2  16  -1  33  -1
M  END
>  <cansmi>
CO[C@H]1O[C@@H](C(=O)[O-])[C@H]([C@H]([C@@H]1O[C@H]1O[C@@H](C(=O)[O-])[C@H]([C@H]([C@H]1O)O)O)O)O

>  <HBA2>
13

>  <HBD>
5

>  <logP>
-7.2279

>  <TPSA>
218.33

>  <MW>
382.274

$$$$
ZINC48056993
 OpenBabel02121623173D

 44 45  0  0  1  0  0  0  0  0999 V2000
   -0.0173    1.4248    0.0099 C   0  0  0  0  0  0  0  0  0  0  0  0
    0.0021   -0.0041    0.0020 O   0  0  0  0  0  0  0  0  0  0  0  0
   -1.2953   -0.6030    0.0112 C   0  0  1  0  0  0  0  0  0  0  0  0
   -1.8804   -0.2157   -0.8230 H   0  0  0  0  0  0  0  0  0  0  0  0
   -1.1575   -2.1217   -0.1235 C   0  0  2  0  0  0  0  0  0  0  0  0
   -2.1478   -2.5758   -0.1573 H   0  0  0  0  0  0  0  0  0  0  0  0
   -0.3859   -2.6656    1.0828 C   0  0  1  0  0  0  0  0  0  0  0  0
    0.6216   -2.2496    1.0890 H   0  0  0  0  0  0  0  0  0  0  0  0
   -1.1157   -2.2597    2.3670 C   0  0  1  0  0  0  0  0  0  0  0  0
   -0.5442   -2.5952    3.2323 H   0  0  0  0  0  0  0  0  0  0  0  0
   -1.2552   -0.7356    2.4055 C   0  0  1  0  0  0  0  0  0  0  0  0
   -0.2650   -0.2805    2.4298 H   0  0  0  0  0  0  0  0  0  0  0  0
   -1.9547   -0.2928    1.2405 O   0  0  0  0  0  0  0  0  0  0  0  0
   -2.0241   -0.3323    3.6372 C   0  0  0  0  0  0  0  0  0  0  0  0
   -1.5535   -0.5355    4.7434 O   0  0  0  0  0  0  0  0  0  0  0  0
   -3.1168    0.1973    3.5275 O   0  5  0  0  0  0  0  0  0  0  0  0
   -2.4124   -2.8598    2.3893 O   0  0  0  0  0  0  0  0  0  0  0  0
   -0.3143   -4.0905    1.0017 O   0  0  0  0  0  0  0  0  0  0  0  0
   -0.4486   -2.4322   -1.3248 O   0  0  0  0  0  0  0  0  0  0  0  0
   -1.2888   -2.6029   -2.4680 C   0  0  2  0  0  0  0  0  0  0  0  0
   -2.0975   -3.2922   -2.2251 H   0  0  0  0  0  0  0  0  0  0  0  0
   -0.4651   -3.1703   -3.6269 C   0  0  1  0  0  0  0  0  0  0  0  0
   -0.0822   -4.1538   -3.3544 H   0  0  0  0  0  0  0  0  0  0  0  0
   -1.3580   -3.2938   -4.8654 C   0  0  1  0  0  0  0  0  0  0  0  0
   -2.1631   -4.0009   -4.6654 H   0  0  0  0  0  0  0  0  0  0  0  0
   -1.9519   -1.9201   -5.1921 C   0  0  1  0  0  0  0  0  0  0  0  0
   -2.6323   -2.0095   -6.0389 H   0  0  0  0  0  0  0  0  0  0  0  0
   -2.7183   -1.4010   -3.9727 C   0  0  1  0  0  0  0  0  0  0  0  0
   -3.5457   -2.0746   -3.7496 H   0  0  0  0  0  0  0  0  0  0  0  0
   -1.8377   -1.3397   -2.8488 O   0  0  0  0  0  0  0  0  0  0  0  0
   -3.2560   -0.0241   -4.2658 C   0  0  0  0  0  0  0  0  0  0  0  0
   -4.0987    0.1292   -5.1336 O   0  0  0  0  0  0  0  0  0  0  0  0
   -2.8485    0.9365   -3.6353 O   0  5  0  0  0  0  0  0  0  0  0  0
   -0.8995   -1.0104   -5.5190 O   0  0  0  0  0  0  0  0  0  0  0  0
   -0.5801   -3.7555   -5.9715 O   0  0  0  0  0  0  0  0  0  0  0  0
    0.6276   -2.2940   -3.9101 O   0  0  0  0  0  0  0  0  0  0  0  0
    1.0053    1.8021    0.0021 H   0  0  0  0  0  0  0  0  0  0  0  0
   -0.5445    1.7859   -0.8732 H   0  0  0  0  0  0  0  0  0  0  0  0
   -0.5275    1.7763    0.9067 H   0  0  0  0  0  0  0  0  0  0  0  0
   -2.9317   -2.6451    3.1763 H   0  0  0  0  0  0  0  0  0  0  0  0
    0.1619   -4.5028    1.7354 H   0  0  0  0  0  0  0  0  0  0  0  0
   -1.2039   -0.1189   -5.7373 H   0  0  0  0  0  0  0  0  0  0  0  0
   -1.0831   -3.8569   -6.7911 H   0  0  0  0  0  0  0  0  0  0  0  0
    1.2324   -2.1665   -3.1664 H   0  0  0  0  0  0  0  0  0  0  0  0
  1  2  1  0  0  0  0
  1 37  1  0  0  0  0
  1 38  1  0  0  0  0
  1 39  1  0  0  0  0
  2  3  1  0  0  0  0
  3  4  1  6  0  0  0
  3 13  1  0  0  0  0
  3  5  1  0  0  0  0
  5  6  1  6  0  0  0
  5  7  1  0  0  0  0
  5 19  1  0  0  0  0
  7  8  1  1  0  0  0
  7  9  1  0  0  0  0
  7 18  1  0  0  0  0
  9 10  1  1  0  0  0
  9 11  1  0  0  0  0
  9 17  1  0  0  0  0
 11 12  1  1  0  0  0
 11 13  1  0  0  0  0
 11 14  1  0  0  0  0
 14 15  2  0  0  0  0
 14 16  1  0  0  0  0
 17 40  1  0  0  0  0
 18 41  1  0  0  0  0
 19 20  1  0  0  0  0
 20 21  1  1  0  0  0
 20 30  1  0  0  0  0
 20 22  1  0  0  0  0
 22 23  1  1  0  0  0
 22 24  1  0  0  0  0
 22 36  1  0  0  0  0
 24 25  1  1  0  0  0
 24 26  1  0  0  0  0
 24 35  1  0  0  0  0
 26 27  1  6  0  0  0
 26 28  1  0  0  0  0
 26 34  1  0  0  0  0
 28 29  1  1  0  0  0
 28 30  1  0  0  0  0
 28 31  1  0  0  0  0
 31 32  2  0  0  0  0
 31 33  1  0  0  0  0
 34 42  1  0  0  0  0
 35 43  1  0  0  0  0
 36 44  1  0  0  0  0
M  CHG  2  16  -1  33  -1
M  END
>  <cansmi>
CO[C@@H]1O[C@@H](C(=O)[O-])[C@H]([C@H]([C@@H]1O[C@H]1O[C@@H](C(=O)[O-])[C@H]([C@H]([C@H]1O)O)O)O)O

>  <HBA2>
13

>  <HBD>
5

>  <logP>
-7.2279

>  <TPSA>
218.33

>  <MW>
382.274

$$$$
ZINC00156701
 OpenBabel02121623173D

 32 34  0  0  1  0  0  0  0  0999 V2000
   -0.0167    1.3784    0.0096 C   0  0  0  0  0  0  0  0  0  0  0  0
    1.1695    2.0865    0.0021 C   0  0  0  0  0  0  0  0  0  0  0  0
    2.3802    1.4093   -0.0131 C   0  0  0  0  0  0  0  0  0  0  0  0
    2.3963    0.0221   -0.0206 C   0  0  0  0  0  0  0  0  0  0  0  0
    1.2074   -0.6814   -0.0130 C   0  0  0  0  0  0  0  0  0  0  0  0
    0.0021   -0.0041    0.0020 C   0  0  0  0  0  0  0  0  0  0  0  0
   -1.2934   -0.7740    0.0107 C   0  0  2  0  0  0  0  0  0  0  0  0
   -2.0861   -0.1570   -0.4124 H   0  0  0  0  0  0  0  0  0  0  0  0
   -1.6545   -1.1532    1.4543 C   0  0  0  0  0  0  0  0  0  0  0  0
   -2.9435   -1.9533    1.3996 C   0  0  0  0  0  0  0  0  0  0  0  0
   -3.8237   -1.8020    2.2216 O   0  0  0  0  0  0  0  0  0  0  0  0
   -3.0712   -2.9182    0.3020 C   0  0  0  0  0  0  0  0  0  0  0  0
   -4.0969   -3.8768    0.3066 C   0  0  0  0  0  0  0  0  0  0  0  0
   -4.2019   -4.7673   -0.7467 C   0  0  0  0  0  0  0  0  0  0  0  0
   -3.2954   -4.7115   -1.7985 C   0  0  0  0  0  0  0  0  0  0  0  0
   -2.2752   -3.7691   -1.8056 C   0  0  0  0  0  0  0  0  0  0  0  0
   -2.1504   -2.8702   -0.7610 C   0  0  0  0  0  0  0  0  0  0  0  0
   -1.1470   -1.9614   -0.7679 O   0  0  0  0  0  0  0  0  0  0  0  0
   -3.4079   -5.5870   -2.8289 O   0  0  0  0  0  0  0  0  0  0  0  0
   -4.9779   -3.9296    1.3362 O   0  0  0  0  0  0  0  0  0  0  0  0
    3.5484    2.1036   -0.0209 O   0  0  0  0  0  0  0  0  0  0  0  0
   -0.9594    1.9052    0.0259 H   0  0  0  0  0  0  0  0  0  0  0  0
    1.1543    3.1664    0.0076 H   0  0  0  0  0  0  0  0  0  0  0  0
    3.3375   -0.5074   -0.0328 H   0  0  0  0  0  0  0  0  0  0  0  0
    1.2194   -1.7613   -0.0189 H   0  0  0  0  0  0  0  0  0  0  0  0
   -0.8595   -1.7595    1.8887 H   0  0  0  0  0  0  0  0  0  0  0  0
   -1.8021   -0.2518    2.0490 H   0  0  0  0  0  0  0  0  0  0  0  0
   -4.9890   -5.5069   -0.7515 H   0  0  0  0  0  0  0  0  0  0  0  0
   -1.5768   -3.7380   -2.6289 H   0  0  0  0  0  0  0  0  0  0  0  0
   -3.9680   -5.2733   -3.5521 H   0  0  0  0  0  0  0  0  0  0  0  0
   -5.7634   -3.3798    1.2103 H   0  0  0  0  0  0  0  0  0  0  0  0
    3.8951    2.3001    0.8601 H   0  0  0  0  0  0  0  0  0  0  0  0
  1  6  2  0  0  0  0
  1  2  1  0  0  0  0
  1 22  1  0  0  0  0
  2  3  2  0  0  0  0
  2 23  1  0  0  0  0
  3  4  1  0  0  0  0
  3 21  1  0  0  0  0
  4  5  2  0  0  0  0
  4 24  1  0  0  0  0
  5  6  1  0  0  0  0
  5 25  1  0  0  0  0
  6  7  1  0  0  0  0
  7  8  1  6  0  0  0
  7 18  1  0  0  0  0
  7  9  1  0  0  0  0
  9 10  1  0  0  0  0
  9 26  1  0  0  0  0
  9 27  1  0  0  0  0
 10 11  2  0  0  0  0
 10 12  1  0  0  0  0
 12 17  2  0  0  0  0
 12 13  1  0  0  0  0
 13 14  2  0  0  0  0
 13 20  1  0  0  0  0
 14 15  1  0  0  0  0
 14 28  1  0  0  0  0
 15 16  2  0  0  0  0
 15 19  1  0  0  0  0
 16 17  1  0  0  0  0
 16 29  1  0  0  0  0
 17 18  1  0  0  0  0
 19 30  1  0  0  0  0
 20 31  1  0  0  0  0
 21 32  1  0  0  0  0
M  END
>  <cansmi>
Oc1ccc(cc1)[C@@H]1CC(=O)c2c(O1)cc(cc2O)O

>  <HBA2>
5

>  <HBD>
3

>  <logP>
2.5099

>  <TPSA>
86.99

>  <MW>
272.253

$$$$
ZINC00001785
 OpenBabel02121623173D

 32 34  0  0  1  0  0  0  0  0999 V2000
   -0.0167    1.3784    0.0096 C   0  0  0  0  0  0  0  0  0  0  0  0
    1.1695    2.0865    0.0021 C   0  0  0  0  0  0  0  0  0  0  0  0
    2.3802    1.4093   -0.0131 C   0  0  0  0  0  0  0  0  0  0  0  0
    2.3963    0.0221   -0.0206 C   0  0  0  0  0  0  0  0  0  0  0  0
    1.2074   -0.6814   -0.0130 C   0  0  0  0  0  0  0  0  0  0  0  0
    0.0021   -0.0041    0.0020 C   0  0  0  0  0  0  0  0  0  0  0  0
   -1.2934   -0.7740    0.0107 C   0  0  1  0  0  0  0  0  0  0  0  0
   -2.0958   -0.1317    0.3735 H   0  0  0  0  0  0  0  0  0  0  0  0
   -1.6189   -1.2455   -1.4141 C   0  0  0  0  0  0  0  0  0  0  0  0
   -2.9095   -2.0414   -1.3400 C   0  0  0  0  0  0  0  0  0  0  0  0
   -3.7686   -1.9445   -2.1921 O   0  0  0  0  0  0  0  0  0  0  0  0
   -3.0651   -2.9339   -0.1862 C   0  0  0  0  0  0  0  0  0  0  0  0
   -4.0911   -3.8916   -0.1547 C   0  0  0  0  0  0  0  0  0  0  0  0
   -4.2230   -4.7127    0.9508 C   0  0  0  0  0  0  0  0  0  0  0  0
   -3.3428   -4.5888    2.0189 C   0  0  0  0  0  0  0  0  0  0  0  0
   -2.3223   -3.6471    1.9908 C   0  0  0  0  0  0  0  0  0  0  0  0
   -2.1710   -2.8170    0.8940 C   0  0  0  0  0  0  0  0  0  0  0  0
   -1.1673   -1.9088    0.8673 O   0  0  0  0  0  0  0  0  0  0  0  0
   -3.4820   -5.3957    3.1007 O   0  0  0  0  0  0  0  0  0  0  0  0
   -4.9470   -4.0105   -1.1999 O   0  0  0  0  0  0  0  0  0  0  0  0
    3.5484    2.1036   -0.0209 O   0  0  0  0  0  0  0  0  0  0  0  0
   -0.9594    1.9052    0.0259 H   0  0  0  0  0  0  0  0  0  0  0  0
    1.1543    3.1664    0.0076 H   0  0  0  0  0  0  0  0  0  0  0  0
    3.3375   -0.5074   -0.0328 H   0  0  0  0  0  0  0  0  0  0  0  0
    1.2194   -1.7613   -0.0189 H   0  0  0  0  0  0  0  0  0  0  0  0
   -1.7510   -0.3842   -2.0689 H   0  0  0  0  0  0  0  0  0  0  0  0
   -0.8139   -1.8777   -1.7888 H   0  0  0  0  0  0  0  0  0  0  0  0
   -5.0109   -5.4506    0.9838 H   0  0  0  0  0  0  0  0  0  0  0  0
   -1.6450   -3.5621    2.8277 H   0  0  0  0  0  0  0  0  0  0  0  0
   -2.9853   -6.2232    3.0406 H   0  0  0  0  0  0  0  0  0  0  0  0
   -4.6555   -4.6356   -1.8777 H   0  0  0  0  0  0  0  0  0  0  0  0
    3.8951    2.3001    0.8601 H   0  0  0  0  0  0  0  0  0  0  0  0
  1  6  2  0  0  0  0
  1  2  1  0  0  0  0
  1 22  1  0  0  0  0
  2  3  2  0  0  0  0
  2 23  1  0  0  0  0
  3  4  1  0  0  0  0
  3 21  1  0  0  0  0
  4  5  2  0  0  0  0
  4 24  1  0  0  0  0
  5  6  1  0  0  0  0
  5 25  1  0  0  0  0
  6  7  1  0  0  0  0
  7  8  1  1  0  0  0
  7 18  1  0  0  0  0
  7  9  1  0  0  0  0
  9 10  1  0  0  0  0
  9 26  1  0  0  0  0
  9 27  1  0  0  0  0
 10 11  2  0  0  0  0
 10 12  1  0  0  0  0
 12 17  2  0  0  0  0
 12 13  1  0  0  0  0
 13 14  2  0  0  0  0
 13 20  1  0  0  0  0
 14 15  1  0  0  0  0
 14 28  1  0  0  0  0
 15 16  2  0  0  0  0
 15 19  1  0  0  0  0
 16 17  1  0  0  0  0
 16 29  1  0  0  0  0
 17 18  1  0  0  0  0
 19 30  1  0  0  0  0
 20 31  1  0  0  0  0
 21 32  1  0  0  0  0
M  END
>  <cansmi>
Oc1ccc(cc1)[C@H]1CC(=O)c2c(O1)cc(cc2O)O

>  <HBA2>
5

>  <HBD>
3

>  <logP>
2.5099

>  <TPSA>
86.99

>  <MW>
272.253

$$$$
ZINC03881804
 OpenBabel02121623173D

 43 46  0  0  1  0  0  0  0  0999 V2000
   -0.0185    1.5155    0.0104 C   0  0  0  0  0  0  0  0  0  0  0  0
    1.3966    2.0943   -0.0000 C   0  0  0  0  0  0  0  0  0  0  0  0
    2.1210    1.5939    1.2588 C   0  0  2  0  0  0  0  0  0  0  0  0
    1.5092    1.8446    2.1254 H   0  0  0  0  0  0  0  0  0  0  0  0
    3.4621    2.2764    1.4116 C   0  0  1  0  0  0  0  0  0  0  0  0
    3.3696    3.1746    0.8011 H   0  0  0  0  0  0  0  0  0  0  0  0
    3.5795    2.8113    2.8270 C   0  0  0  0  0  0  0  0  0  0  0  0
    4.9641    3.3764    3.1196 C   0  0  0  0  0  0  0  0  0  0  0  0
    5.9788    2.2683    2.8093 C   0  0  0  0  0  0  0  0  0  0  0  0
    5.9374    2.0025    1.3798 N   0  0  2  0  0  0  0  0  0  0  0  0
    6.1383    3.3208    0.7780 O   0  0  0  0  0  0  0  0  0  0  0  0
    4.6711    1.5755    0.8626 C   0  0  1  0  0  0  0  0  0  0  0  0
    4.7077    1.9199   -0.1709 H   0  0  0  0  0  0  0  0  0  0  0  0
    4.5073    0.0900    0.7033 C   0  0  1  0  0  0  0  0  0  0  0  0
    4.0246    0.0216   -0.2716 H   0  0  0  0  0  0  0  0  0  0  0  0
    5.7333   -0.7487    0.5031 C   0  0  0  0  0  0  0  0  0  0  0  0
    6.8968   -0.2397    1.3601 C   0  0  0  0  0  0  0  0  0  0  0  0
    7.1019    1.2505    0.9547 C   0  0  0  0  0  0  0  0  0  0  0  0
    3.4515   -0.5152    1.6078 C   0  0  0  0  0  0  0  0  0  0  0  0
    2.2100    0.1414    1.1680 N   0  0  0  0  0  0  0  0  0  0  0  0
    1.2013   -0.5852    0.6779 C   0  0  0  0  0  0  0  0  0  0  0  0
    1.2628   -1.7914    0.7889 O   0  0  0  0  0  0  0  0  0  0  0  0
    0.0021   -0.0041    0.0020 C   0  0  0  0  0  0  0  0  0  0  0  0
   -0.5378    1.8599    0.9047 H   0  0  0  0  0  0  0  0  0  0  0  0
   -0.5548    1.8694   -0.8701 H   0  0  0  0  0  0  0  0  0  0  0  0
    1.9271    1.7554   -0.8899 H   0  0  0  0  0  0  0  0  0  0  0  0
    1.3497    3.1832    0.0099 H   0  0  0  0  0  0  0  0  0  0  0  0
    2.8393    3.5985    2.9697 H   0  0  0  0  0  0  0  0  0  0  0  0
    3.3725    2.0029    3.5284 H   0  0  0  0  0  0  0  0  0  0  0  0
    5.1537    4.2421    2.4851 H   0  0  0  0  0  0  0  0  0  0  0  0
    5.0347    3.6614    4.1693 H   0  0  0  0  0  0  0  0  0  0  0  0
    6.9790    2.5952    3.0938 H   0  0  0  0  0  0  0  0  0  0  0  0
    5.7163    1.3645    3.3592 H   0  0  0  0  0  0  0  0  0  0  0  0
    5.5102   -1.7794    0.7789 H   0  0  0  0  0  0  0  0  0  0  0  0
    6.0217   -0.7152   -0.5475 H   0  0  0  0  0  0  0  0  0  0  0  0
    6.6527   -0.3444    2.4173 H   0  0  0  0  0  0  0  0  0  0  0  0
    7.8015   -0.8024    1.1297 H   0  0  0  0  0  0  0  0  0  0  0  0
    7.2357    1.3665   -0.1208 H   0  0  0  0  0  0  0  0  0  0  0  0
    7.9848    1.6261    1.4719 H   0  0  0  0  0  0  0  0  0  0  0  0
    3.3897   -1.5925    1.4539 H   0  0  0  0  0  0  0  0  0  0  0  0
    3.6689   -0.2896    2.6518 H   0  0  0  0  0  0  0  0  0  0  0  0
   -0.8935   -0.3684    0.5053 H   0  0  0  0  0  0  0  0  0  0  0  0
   -0.0172   -0.3481   -1.0321 H   0  0  0  0  0  0  0  0  0  0  0  0
  1 23  1  0  0  0  0
  1  2  1  0  0  0  0
  1 24  1  0  0  0  0
  1 25  1  0  0  0  0
  2  3  1  0  0  0  0
  2 26  1  0  0  0  0
  2 27  1  0  0  0  0
  3  4  1  1  0  0  0
  3 20  1  0  0  0  0
  3  5  1  0  0  0  0
  5  6  1  6  0  0  0
  5 12  1  0  0  0  0
  5  7  1  0  0  0  0
  7  8  1  0  0  0  0
  7 28  1  0  0  0  0
  7 29  1  0  0  0  0
  8  9  1  0  0  0  0
  8 30  1  0  0  0  0
  8 31  1  0  0  0  0
  9 10  1  0  0  0  0
  9 32  1  0  0  0  0
  9 33  1  0  0  0  0
 10 18  1  0  0  0  0
 10 11  2  6  0  0  0
 10 12  1  0  0  0  0
 12 13  1  6  0  0  0
 12 14  1  0  0  0  0
 14 15  1  6  0  0  0
 14 16  1  0  0  0  0
 14 19  1  0  0  0  0
 16 17  1  0  0  0  0
 16 34  1  0  0  0  0
 16 35  1  0  0  0  0
 17 18  1  0  0  0  0
 17 36  1  0  0  0  0
 17 37  1  0  0  0  0
 18 38  1  0  0  0  0
 18 39  1  0  0  0  0
 19 20  1  0  0  0  0
 19 40  1  0  0  0  0
 19 41  1  0  0  0  0
 20 21  1  0  0  0  0
 21 22  2  0  0  0  0
 21 23  1  0  0  0  0
 23 42  1  0  0  0  0
 23 43  1  0  0  0  0
M  END
>  <cansmi>
O=C1CCC[C@H]2N1C[C@@H]1CCC[N@@]3(=O)[C@@H]1[C@@H]2CCC3

>  <HBA2>
3

>  <HBD>
0

>  <logP>
1.781

>  <TPSA>
49.74

>  <MW>
264.363

$$$$
ZINC03881797
 OpenBabel02121623173D

 55 57  0  0  1  0  0  0  0  0999 V2000
   -0.7424    1.0812    0.4672 C   0  0  0  0  0  0  0  0  0  0  0  0
   -0.6497   -0.4412    0.3463 C   0  0  1  0  0  0  0  0  0  0  0  0
   -0.3406   -0.8224   -1.1039 C   0  0  0  0  0  0  0  0  0  0  0  0
    1.0054   -0.2277   -1.5195 C   0  0  0  0  0  0  0  0  0  0  0  0
    2.1034   -0.7811   -0.6079 C   0  0  2  0  0  0  0  0  0  0  0  0
    2.1318   -1.8676   -0.6903 H   0  0  0  0  0  0  0  0  0  0  0  0
    1.8033   -0.3862    0.8384 C   0  0  1  0  0  0  0  0  0  0  0  0
    0.4576   -0.9613    1.2641 C   0  0  1  0  0  0  0  0  0  0  0  0
    0.4964   -2.0491    1.2068 H   0  0  0  0  0  0  0  0  0  0  0  0
    0.1801   -0.5340    2.7082 C   0  0  0  0  0  0  0  0  0  0  0  0
   -1.1221   -1.1773    3.1936 C   0  0  0  0  0  0  0  0  0  0  0  0
   -2.2234   -0.8143    2.2217 C   0  0  0  0  0  0  0  0  0  0  0  0
   -3.3484   -0.2919    2.6430 C   0  0  0  0  0  0  0  0  0  0  0  0
   -1.9886   -1.0711    0.7506 C   0  0  1  0  0  0  0  0  0  0  0  0
   -1.9591   -2.1442    0.5621 H   0  0  0  0  0  0  0  0  0  0  0  0
   -3.1198   -0.4360   -0.0605 C   0  0  0  0  0  0  0  0  0  0  0  0
   -4.4030   -1.1831    0.1966 C   0  0  0  0  0  0  0  0  0  0  0  0
   -5.5346   -0.5123    0.3983 C   0  0  0  0  0  0  0  0  0  0  0  0
   -5.7628    0.9836    0.2462 C   0  0  1  0  0  0  0  0  0  0  0  0
   -5.5680    1.3006   -0.7783 H   0  0  0  0  0  0  0  0  0  0  0  0
   -7.2581    1.1474    0.5926 C   0  0  0  0  0  0  0  0  0  0  0  0
   -7.8050   -0.1769    0.4770 O   0  0  0  0  0  0  0  0  0  0  0  0
   -6.8418   -1.0602    0.8118 C   0  0  0  0  0  0  0  0  0  0  0  0
   -7.0213   -2.1277    1.3644 O   0  0  0  0  0  0  0  0  0  0  0  0
   -4.9459    1.7146    1.1629 O   0  0  0  0  0  0  0  0  0  0  0  0
    2.9034   -0.9292    1.7527 C   0  0  0  0  0  0  0  0  0  0  0  0
    1.7576    1.1390    0.9503 C   0  0  0  0  0  0  0  0  0  0  0  0
    3.0677    1.6712    0.7444 O   0  0  0  0  0  0  0  0  0  0  0  0
    3.3666   -0.2396   -0.9994 O   0  0  0  0  0  0  0  0  0  0  0  0
   -0.2533    1.5442   -0.3898 H   0  0  0  0  0  0  0  0  0  0  0  0
   -1.7902    1.3805    0.4929 H   0  0  0  0  0  0  0  0  0  0  0  0
   -0.2498    1.4035    1.3845 H   0  0  0  0  0  0  0  0  0  0  0  0
   -0.3000   -1.9081   -1.1925 H   0  0  0  0  0  0  0  0  0  0  0  0
   -1.1243   -0.4356   -1.7553 H   0  0  0  0  0  0  0  0  0  0  0  0
    1.2195   -0.4987   -2.5533 H   0  0  0  0  0  0  0  0  0  0  0  0
    0.9680    0.8577   -1.4270 H   0  0  0  0  0  0  0  0  0  0  0  0
    1.0034   -0.8553    3.3463 H   0  0  0  0  0  0  0  0  0  0  0  0
    0.0880    0.5511    2.7543 H   0  0  0  0  0  0  0  0  0  0  0  0
   -1.0058   -2.2605    3.2291 H   0  0  0  0  0  0  0  0  0  0  0  0
   -1.3697   -0.8013    4.1863 H   0  0  0  0  0  0  0  0  0  0  0  0
   -3.4674   -0.0347    3.6852 H   0  0  0  0  0  0  0  0  0  0  0  0
   -4.1568   -0.1185    1.9482 H   0  0  0  0  0  0  0  0  0  0  0  0
   -3.2399    0.6057    0.2373 H   0  0  0  0  0  0  0  0  0  0  0  0
   -2.8774   -0.4847   -1.1221 H   0  0  0  0  0  0  0  0  0  0  0  0
   -4.4044   -2.2629    0.2173 H   0  0  0  0  0  0  0  0  0  0  0  0
   -7.3739    1.5188    1.6108 H   0  0  0  0  0  0  0  0  0  0  0  0
   -7.7407    1.8209   -0.1156 H   0  0  0  0  0  0  0  0  0  0  0  0
   -5.0534    2.6739    1.1068 H   0  0  0  0  0  0  0  0  0  0  0  0
    3.8643   -0.5107    1.4531 H   0  0  0  0  0  0  0  0  0  0  0  0
    2.6903   -0.6482    2.7840 H   0  0  0  0  0  0  0  0  0  0  0  0
    2.9394   -2.0157    1.6721 H   0  0  0  0  0  0  0  0  0  0  0  0
    1.0803    1.5385    0.1955 H   0  0  0  0  0  0  0  0  0  0  0  0
    1.4029    1.4201    1.9419 H   0  0  0  0  0  0  0  0  0  0  0  0
    3.1139    2.6355    0.8012 H   0  0  0  0  0  0  0  0  0  0  0  0
    3.6192   -0.4486   -1.9091 H   0  0  0  0  0  0  0  0  0  0  0  0
  1 30  1  0  0  0  0
  1 31  1  0  0  0  0
  1 32  1  0  0  0  0
  2  1  1  1  0  0  0
  2  8  1  0  0  0  0
  2 14  1  0  0  0  0
  2  3  1  0  0  0  0
  3  4  1  0  0  0  0
  3 33  1  0  0  0  0
  3 34  1  0  0  0  0
  4  5  1  0  0  0  0
  4 35  1  0  0  0  0
  4 36  1  0  0  0  0
  5  6  1  6  0  0  0
  5  7  1  0  0  0  0
  5 29  1  0  0  0  0
  7  8  1  0  0  0  0
  7 26  1  1  0  0  0
  7 27  1  0  0  0  0
  8  9  1  6  0  0  0
  8 10  1  0  0  0  0
 10 11  1  0  0  0  0
 10 37  1  0  0  0  0
 10 38  1  0  0  0  0
 11 12  1  0  0  0  0
 11 39  1  0  0  0  0
 11 40  1  0  0  0  0
 12 13  2  0  0  0  0
 12 14  1  0  0  0  0
 13 41  1  0  0  0  0
 13 42  1  0  0  0  0
 14 15  1  6  0  0  0
 14 16  1  0  0  0  0
 16 17  1  0  0  0  0
 16 43  1  0  0  0  0
 16 44  1  0  0  0  0
 17 18  2  0  0  0  0
 17 45  1  0  0  0  0
 18 23  1  0  0  0  0
 18 19  1  0  0  0  0
 19 20  1  6  0  0  0
 19 21  1  0  0  0  0
 19 25  1  0  0  0  0
 21 22  1  0  0  0  0
 21 46  1  0  0  0  0
 21 47  1  0  0  0  0
 22 23  1  0  0  0  0
 23 24  2  0  0  0  0
 25 48  1  0  0  0  0
 26 49  1  0  0  0  0
 26 50  1  0  0  0  0
 26 51  1  0  0  0  0
 27 28  1  0  0  0  0
 27 52  1  0  0  0  0
 27 53  1  0  0  0  0
 28 54  1  0  0  0  0
 29 55  1  0  0  0  0
M  END
>  <cansmi>
OC[C@]1(C)[C@H](O)CC[C@@]2([C@@H]1CCC(=C)[C@H]2C/C=C/1\[C@H](O)COC1=O)C

>  <HBA2>
5

>  <HBD>
3

>  <logP>
1.9626

>  <TPSA>
86.99

>  <MW>
350.449

$$$$
ZINC64220360
 OpenBabel02121623173D

 32 34  0  0  1  0  0  0  0  0999 V2000
   -0.0184    1.5028    0.0103 C   0  0  0  0  0  0  0  0  0  0  0  0
    0.0021   -0.0041    0.0020 C   0  0  0  0  0  0  0  0  0  0  0  0
    0.0069   -0.7044   -1.0859 N   0  0  0  0  0  0  0  0  0  0  0  0
    0.0762   -2.1526   -1.1359 C   0  0  0  0  0  0  0  0  0  0  0  0
   -0.5688   -2.8851    0.0428 C   0  0  0  0  0  0  0  0  0  0  0  0
   -1.1191   -1.8731    1.0141 C   0  0  2  0  0  0  0  0  0  0  0  0
   -1.9764   -1.3714    0.5653 H   0  0  0  0  0  0  0  0  0  0  0  0
    0.0252   -0.8296    1.2542 C   0  0  2  0  0  0  0  0  0  0  0  0
    0.9903   -1.3208    1.3785 H   0  0  0  0  0  0  0  0  0  0  0  0
   -0.4179   -0.2039    2.4943 N   0  0  0  0  0  0  0  0  0  0  0  0
   -1.0053   -1.2316    3.2443 C   0  0  0  0  0  0  0  0  0  0  0  0
   -1.4532   -2.2671    2.4001 C   0  0  0  0  0  0  0  0  0  0  0  0
   -2.0689   -3.3888    2.9189 C   0  0  0  0  0  0  0  0  0  0  0  0
   -2.2276   -3.4533    4.2968 C   0  0  0  0  0  0  0  0  0  0  0  0
   -1.7873   -2.4349    5.1251 C   0  0  0  0  0  0  0  0  0  0  0  0
   -1.1711   -1.3117    4.6227 C   0  0  0  0  0  0  0  0  0  0  0  0
   -1.9643   -2.5486    6.4677 O   0  0  0  0  0  0  0  0  0  0  0  0
   -2.6054   -3.7354    6.9394 C   0  0  0  0  0  0  0  0  0  0  0  0
    1.0042    1.8801    0.0026 H   0  0  0  0  0  0  0  0  0  0  0  0
   -0.5455    1.8639   -0.8728 H   0  0  0  0  0  0  0  0  0  0  0  0
   -0.5286    1.8543    0.9071 H   0  0  0  0  0  0  0  0  0  0  0  0
   -0.4095   -2.4865   -2.0528 H   0  0  0  0  0  0  0  0  0  0  0  0
    1.1257   -2.4429   -1.1856 H   0  0  0  0  0  0  0  0  0  0  0  0
   -1.3781   -3.5183   -0.3208 H   0  0  0  0  0  0  0  0  0  0  0  0
    0.1793   -3.5002    0.5427 H   0  0  0  0  0  0  0  0  0  0  0  0
   -0.3252    0.7279    2.7472 H   0  0  0  0  0  0  0  0  0  0  0  0
   -2.4137   -4.1861    2.2772 H   0  0  0  0  0  0  0  0  0  0  0  0
   -2.7060   -4.3179    4.7326 H   0  0  0  0  0  0  0  0  0  0  0  0
   -0.8256   -0.5247    5.2767 H   0  0  0  0  0  0  0  0  0  0  0  0
   -2.6837   -3.6987    8.0259 H   0  0  0  0  0  0  0  0  0  0  0  0
   -3.6028   -3.8065    6.5054 H   0  0  0  0  0  0  0  0  0  0  0  0
   -2.0188   -4.6061    6.6465 H   0  0  0  0  0  0  0  0  0  0  0  0
  1  2  1  0  0  0  0
  1 19  1  0  0  0  0
  1 20  1  0  0  0  0
  1 21  1  0  0  0  0
  2  8  1  0  0  0  0
  2  3  2  0  0  0  0
  3  4  1  0  0  0  0
  4  5  1  0  0  0  0
  4 22  1  0  0  0  0
  4 23  1  0  0  0  0
  5  6  1  0  0  0  0
  5 24  1  0  0  0  0
  5 25  1  0  0  0  0
  6  7  1  6  0  0  0
  6 12  1  0  0  0  0
  6  8  1  0  0  0  0
  8  9  1  1  0  0  0
  8 10  1  0  0  0  0
 10 11  1  0  0  0  0
 10 26  1  0  0  0  0
 11 16  2  0  0  0  0
 11 12  1  0  0  0  0
 12 13  2  0  0  0  0
 13 14  1  0  0  0  0
 13 27  1  0  0  0  0
 14 15  2  0  0  0  0
 14 28  1  0  0  0  0
 15 16  1  0  0  0  0
 15 17  1  0  0  0  0
 16 29  1  0  0  0  0
 17 18  1  0  0  0  0
 18 30  1  0  0  0  0
 18 31  1  0  0  0  0
 18 32  1  0  0  0  0
M  END
>  <cansmi>
COc1ccc2c(c1)N[C@H]1[C@H]2CCN=C1C

>  <HBA2>
3

>  <HBD>
1

>  <logP>
2.0111

>  <TPSA>
33.62

>  <MW>
216.279

$$$$
ZINC64220361
 OpenBabel02121623173D

 32 34  0  0  1  0  0  0  0  0999 V2000
   -0.0184    1.5028    0.0103 C   0  0  0  0  0  0  0  0  0  0  0  0
    0.0021   -0.0041    0.0020 C   0  0  0  0  0  0  0  0  0  0  0  0
    0.0041   -0.5713   -1.1282 N   0  0  0  0  0  0  0  0  0  0  0  0
    0.0121   -2.0288   -1.2590 C   0  0  0  0  0  0  0  0  0  0  0  0
   -0.7625   -2.6255   -0.0810 C   0  0  0  0  0  0  0  0  0  0  0  0
   -0.0833   -2.2147    1.2259 C   0  0  1  0  0  0  0  0  0  0  0  0
    0.8936   -2.6884    1.3230 H   0  0  0  0  0  0  0  0  0  0  0  0
    0.0239   -0.6851    1.3230 C   0  0  2  0  0  0  0  0  0  0  0  0
    0.9382   -0.4172    1.8525 H   0  0  0  0  0  0  0  0  0  0  0  0
   -1.1340   -0.2944    2.1451 N   0  0  0  0  0  0  0  0  0  0  0  0
   -1.5243   -1.3962    2.8943 C   0  0  0  0  0  0  0  0  0  0  0  0
   -0.9768   -2.5748    2.3832 C   0  0  0  0  0  0  0  0  0  0  0  0
   -1.2554   -3.8124    2.9301 C   0  0  0  0  0  0  0  0  0  0  0  0
   -2.1041   -3.8421    4.0297 C   0  0  0  0  0  0  0  0  0  0  0  0
   -2.6455   -2.6807    4.5545 C   0  0  0  0  0  0  0  0  0  0  0  0
   -2.3604   -1.4327    4.0113 C   0  0  0  0  0  0  0  0  0  0  0  0
   -3.4595   -2.7620    5.6397 O   0  0  0  0  0  0  0  0  0  0  0  0
   -3.7031   -4.0657    6.1717 C   0  0  0  0  0  0  0  0  0  0  0  0
    1.0042    1.8801    0.0026 H   0  0  0  0  0  0  0  0  0  0  0  0
   -0.5455    1.8639   -0.8728 H   0  0  0  0  0  0  0  0  0  0  0  0
   -0.5286    1.8543    0.9071 H   0  0  0  0  0  0  0  0  0  0  0  0
   -0.4671   -2.3152   -2.1952 H   0  0  0  0  0  0  0  0  0  0  0  0
    1.0396   -2.3924   -1.2437 H   0  0  0  0  0  0  0  0  0  0  0  0
   -1.7866   -2.2525   -0.0921 H   0  0  0  0  0  0  0  0  0  0  0  0
   -0.7688   -3.7124   -0.1623 H   0  0  0  0  0  0  0  0  0  0  0  0
   -1.5514    0.5811    2.1606 H   0  0  0  0  0  0  0  0  0  0  0  0
   -0.8321   -4.7176    2.5204 H   0  0  0  0  0  0  0  0  0  0  0  0
   -2.3471   -4.7910    4.4845 H   0  0  0  0  0  0  0  0  0  0  0  0
   -2.7841   -0.5304    4.4270 H   0  0  0  0  0  0  0  0  0  0  0  0
   -4.3666   -3.9885    7.0330 H   0  0  0  0  0  0  0  0  0  0  0  0
   -4.1696   -4.6883    5.4083 H   0  0  0  0  0  0  0  0  0  0  0  0
   -2.7588   -4.5147    6.4795 H   0  0  0  0  0  0  0  0  0  0  0  0
  1  2  1  0  0  0  0
  1 19  1  0  0  0  0
  1 20  1  0  0  0  0
  1 21  1  0  0  0  0
  2  8  1  0  0  0  0
  2  3  2  0  0  0  0
  3  4  1  0  0  0  0
  4  5  1  0  0  0  0
  4 22  1  0  0  0  0
  4 23  1  0  0  0  0
  5  6  1  0  0  0  0
  5 24  1  0  0  0  0
  5 25  1  0  0  0  0
  6  7  1  1  0  0  0
  6 12  1  0  0  0  0
  6  8  1  0  0  0  0
  8  9  1  1  0  0  0
  8 10  1  0  0  0  0
 10 11  1  0  0  0  0
 10 26  1  0  0  0  0
 11 16  2  0  0  0  0
 11 12  1  0  0  0  0
 12 13  2  0  0  0  0
 13 14  1  0  0  0  0
 13 27  1  0  0  0  0
 14 15  2  0  0  0  0
 14 28  1  0  0  0  0
 15 16  1  0  0  0  0
 15 17  1  0  0  0  0
 16 29  1  0  0  0  0
 17 18  1  0  0  0  0
 18 30  1  0  0  0  0
 18 31  1  0  0  0  0
 18 32  1  0  0  0  0
M  END
>  <cansmi>
COc1ccc2c(c1)N[C@H]1[C@@H]2CCN=C1C

>  <HBA2>
3

>  <HBD>
1

>  <logP>
2.0111

>  <TPSA>
33.62

>  <MW>
216.279

$$$$
ZINC64220362
 OpenBabel02121623173D

 32 34  0  0  1  0  0  0  0  0999 V2000
   -0.0184    1.5028    0.0103 C   0  0  0  0  0  0  0  0  0  0  0  0
    0.0021   -0.0041    0.0020 C   0  0  0  0  0  0  0  0  0  0  0  0
    0.0041   -0.5713   -1.1282 N   0  0  0  0  0  0  0  0  0  0  0  0
    0.0345   -2.0285   -1.2592 C   0  0  0  0  0  0  0  0  0  0  0  0
    0.8367   -2.6037   -0.0890 C   0  0  0  0  0  0  0  0  0  0  0  0
    0.1597   -2.2114    1.2247 C   0  0  2  0  0  0  0  0  0  0  0  0
   -0.8029   -2.7114    1.3315 H   0  0  0  0  0  0  0  0  0  0  0  0
    0.0239   -0.6851    1.3230 C   0  0  1  0  0  0  0  0  0  0  0  0
   -0.8872   -0.4420    1.8698 H   0  0  0  0  0  0  0  0  0  0  0  0
    1.1861   -0.2628    2.1231 N   0  0  0  0  0  0  0  0  0  0  0  0
    1.6203   -1.3534    2.8645 C   0  0  0  0  0  0  0  0  0  0  0  0
    1.0742   -2.5470    2.3729 C   0  0  0  0  0  0  0  0  0  0  0  0
    1.3917   -3.7764    2.9169 C   0  0  0  0  0  0  0  0  0  0  0  0
    2.2518   -3.7829    4.0080 C   0  0  0  0  0  0  0  0  0  0  0  0
    2.7663   -2.6071    4.5278 C   0  0  0  0  0  0  0  0  0  0  0  0
    2.4782   -1.3669    3.9654 C   0  0  0  0  0  0  0  0  0  0  0  0
    3.5926   -2.6661    5.6050 O   0  0  0  0  0  0  0  0  0  0  0  0
    3.8768   -3.9626    6.1344 C   0  0  0  0  0  0  0  0  0  0  0  0
    1.0042    1.8801    0.0026 H   0  0  0  0  0  0  0  0  0  0  0  0
   -0.5455    1.8639   -0.8728 H   0  0  0  0  0  0  0  0  0  0  0  0
   -0.5286    1.8543    0.9071 H   0  0  0  0  0  0  0  0  0  0  0  0
   -0.9825   -2.4199   -1.2336 H   0  0  0  0  0  0  0  0  0  0  0  0
    0.5119   -2.3019   -2.2001 H   0  0  0  0  0  0  0  0  0  0  0  0
    0.8717   -3.6901   -0.1705 H   0  0  0  0  0  0  0  0  0  0  0  0
    1.8502   -2.2031   -0.1103 H   0  0  0  0  0  0  0  0  0  0  0  0
    1.5801    0.6236    2.1305 H   0  0  0  0  0  0  0  0  0  0  0  0
    0.9885   -4.6928    2.5118 H   0  0  0  0  0  0  0  0  0  0  0  0
    2.5246   -4.7248    4.4604 H   0  0  0  0  0  0  0  0  0  0  0  0
    2.8852   -0.4533    4.3730 H   0  0  0  0  0  0  0  0  0  0  0  0
    4.5463   -3.8673    6.9893 H   0  0  0  0  0  0  0  0  0  0  0  0
    2.9482   -4.4373    6.4513 H   0  0  0  0  0  0  0  0  0  0  0  0
    4.3529   -4.5723    5.3664 H   0  0  0  0  0  0  0  0  0  0  0  0
  1  2  1  0  0  0  0
  1 19  1  0  0  0  0
  1 20  1  0  0  0  0
  1 21  1  0  0  0  0
  2  8  1  0  0  0  0
  2  3  2  0  0  0  0
  3  4  1  0  0  0  0
  4  5  1  0  0  0  0
  4 22  1  0  0  0  0
  4 23  1  0  0  0  0
  5  6  1  0  0  0  0
  5 24  1  0  0  0  0
  5 25  1  0  0  0  0
  6  7  1  1  0  0  0
  6 12  1  0  0  0  0
  6  8  1  0  0  0  0
  8  9  1  1  0  0  0
  8 10  1  0  0  0  0
 10 11  1  0  0  0  0
 10 26  1  0  0  0  0
 11 16  2  0  0  0  0
 11 12  1  0  0  0  0
 12 13  2  0  0  0  0
 13 14  1  0  0  0  0
 13 27  1  0  0  0  0
 14 15  2  0  0  0  0
 14 28  1  0  0  0  0
 15 16  1  0  0  0  0
 15 17  1  0  0  0  0
 16 29  1  0  0  0  0
 17 18  1  0  0  0  0
 18 30  1  0  0  0  0
 18 31  1  0  0  0  0
 18 32  1  0  0  0  0
M  END
>  <cansmi>
COc1ccc2c(c1)N[C@@H]1[C@H]2CCN=C1C

>  <HBA2>
3

>  <HBD>
1

>  <logP>
2.0111

>  <TPSA>
33.62

>  <MW>
216.279

$$$$
ZINC64220363
 OpenBabel02121623173D

 32 34  0  0  1  0  0  0  0  0999 V2000
   -0.0184    1.5028    0.0103 C   0  0  0  0  0  0  0  0  0  0  0  0
    0.0021   -0.0041    0.0020 C   0  0  0  0  0  0  0  0  0  0  0  0
    0.0068   -0.7044   -1.0859 N   0  0  0  0  0  0  0  0  0  0  0  0
   -0.0228   -2.1540   -1.1354 C   0  0  0  0  0  0  0  0  0  0  0  0
    0.6529   -2.8682    0.0373 C   0  0  0  0  0  0  0  0  0  0  0  0
    1.1837   -1.8412    1.0036 C   0  0  1  0  0  0  0  0  0  0  0  0
    2.0227   -1.3160    0.5471 H   0  0  0  0  0  0  0  0  0  0  0  0
    0.0252   -0.8296    1.2542 C   0  0  1  0  0  0  0  0  0  0  0  0
   -0.9234   -1.3473    1.3963 H   0  0  0  0  0  0  0  0  0  0  0  0
    0.4737   -0.1916    2.4860 N   0  0  0  0  0  0  0  0  0  0  0  0
    1.1033   -1.2023    3.2247 C   0  0  0  0  0  0  0  0  0  0  0  0
    1.5412   -2.2256    2.3865 C   0  0  0  0  0  0  0  0  0  0  0  0
    2.1921   -3.3299    2.8996 C   0  0  0  0  0  0  0  0  0  0  0  0
    2.3648   -3.3900    4.2760 C   0  0  0  0  0  0  0  0  0  0  0  0
    1.9035   -2.3842    5.1085 C   0  0  0  0  0  0  0  0  0  0  0  0
    1.2970   -1.2773    4.5998 C   0  0  0  0  0  0  0  0  0  0  0  0
    2.0943   -2.4936    6.4495 O   0  0  0  0  0  0  0  0  0  0  0  0
    2.7713   -3.6627    6.9153 C   0  0  0  0  0  0  0  0  0  0  0  0
    1.0042    1.8801    0.0026 H   0  0  0  0  0  0  0  0  0  0  0  0
   -0.5455    1.8639   -0.8728 H   0  0  0  0  0  0  0  0  0  0  0  0
   -0.5286    1.8543    0.9071 H   0  0  0  0  0  0  0  0  0  0  0  0
   -1.0642   -2.4733   -1.1756 H   0  0  0  0  0  0  0  0  0  0  0  0
    0.4636   -2.4744   -2.0568 H   0  0  0  0  0  0  0  0  0  0  0  0
   -0.0733   -3.5037    0.5439 H   0  0  0  0  0  0  0  0  0  0  0  0
    1.4761   -3.4787   -0.3338 H   0  0  0  0  0  0  0  0  0  0  0  0
    0.3603    0.7375    2.7406 H   0  0  0  0  0  0  0  0  0  0  0  0
    2.5531   -4.1174    2.2547 H   0  0  0  0  0  0  0  0  0  0  0  0
    2.8704   -4.2412    4.7074 H   0  0  0  0  0  0  0  0  0  0  0  0
    0.9419   -0.5001    5.2602 H   0  0  0  0  0  0  0  0  0  0  0  0
    2.8573   -3.6244    8.0012 H   0  0  0  0  0  0  0  0  0  0  0  0
    2.2063   -4.5490    6.6266 H   0  0  0  0  0  0  0  0  0  0  0  0
    3.7667   -3.7065    6.4733 H   0  0  0  0  0  0  0  0  0  0  0  0
  1  2  1  0  0  0  0
  1 19  1  0  0  0  0
  1 20  1  0  0  0  0
  1 21  1  0  0  0  0
  2  8  1  0  0  0  0
  2  3  2  0  0  0  0
  3  4  1  0  0  0  0
  4  5  1  0  0  0  0
  4 22  1  0  0  0  0
  4 23  1  0  0  0  0
  5  6  1  0  0  0  0
  5 24  1  0  0  0  0
  5 25  1  0  0  0  0
  6  7  1  6  0  0  0
  6 12  1  0  0  0  0
  6  8  1  0  0  0  0
  8  9  1  1  0  0  0
  8 10  1  0  0  0  0
 10 11  1  0  0  0  0
 10 26  1  0  0  0  0
 11 16  2  0  0  0  0
 11 12  1  0  0  0  0
 12 13  2  0  0  0  0
 13 14  1  0  0  0  0
 13 27  1  0  0  0  0
 14 15  2  0  0  0  0
 14 28  1  0  0  0  0
 15 16  1  0  0  0  0
 15 17  1  0  0  0  0
 16 29  1  0  0  0  0
 17 18  1  0  0  0  0
 18 30  1  0  0  0  0
 18 31  1  0  0  0  0
 18 32  1  0  0  0  0
M  END
>  <cansmi>
COc1ccc2c(c1)N[C@@H]1[C@@H]2CCN=C1C

>  <HBA2>
3

>  <HBD>
1

>  <logP>
2.0111

>  <TPSA>
33.62

>  <MW>
216.279

$$$$
ZINC64220364
 OpenBabel02121623173D

 29 31  0  0  0  0  0  0  0  0999 V2000
   -0.0184    1.5028    0.0103 C   0  0  0  0  0  0  0  0  0  0  0  0
    0.0021   -0.0041    0.0020 C   0  0  0  0  0  0  0  0  0  0  0  0
    0.0057   -0.6864   -1.1960 C   0  0  0  0  0  0  0  0  0  0  0  0
    0.0244   -2.0722   -1.2177 C   0  0  0  0  0  0  0  0  0  0  0  0
    0.0397   -2.7850   -0.0376 C   0  0  0  0  0  0  0  0  0  0  0  0
    0.0362   -2.1083    1.1794 C   0  0  0  0  0  0  0  0  0  0  0  0
    0.0230   -0.7056    1.2031 C   0  0  0  0  0  0  0  0  0  0  0  0
    0.0299   -0.2912    2.5236 N   0  0  0  0  0  0  0  0  0  0  0  0
    0.0201    0.6341    2.8144 H   0  0  0  0  0  0  0  0  0  0  0  0
    0.0528   -1.3859    3.3694 C   0  0  0  0  0  0  0  0  0  0  0  0
    0.0489   -2.5505    2.5862 C   0  0  0  0  0  0  0  0  0  0  0  0
    0.0681   -3.8029    3.1958 C   0  0  0  0  0  0  0  0  0  0  0  0
    0.0753   -3.8969    4.5701 C   0  0  0  0  0  0  0  0  0  0  0  0
    0.0633   -2.7452    5.3501 C   0  0  0  0  0  0  0  0  0  0  0  0
    0.0675   -1.4960    4.7555 C   0  0  0  0  0  0  0  0  0  0  0  0
    0.0705   -2.8477    6.7052 O   0  0  0  0  0  0  0  0  0  0  0  0
    0.0903   -4.1662    7.2560 C   0  0  0  0  0  0  0  0  0  0  0  0
    1.0042    1.8801    0.0026 H   0  0  0  0  0  0  0  0  0  0  0  0
   -0.5455    1.8639   -0.8728 H   0  0  0  0  0  0  0  0  0  0  0  0
   -0.5286    1.8543    0.9071 H   0  0  0  0  0  0  0  0  0  0  0  0
   -0.0065   -0.1365   -2.1254 H   0  0  0  0  0  0  0  0  0  0  0  0
    0.0267   -2.5955   -2.1624 H   0  0  0  0  0  0  0  0  0  0  0  0
    0.0539   -3.8647   -0.0571 H   0  0  0  0  0  0  0  0  0  0  0  0
    0.0771   -4.6984    2.5922 H   0  0  0  0  0  0  0  0  0  0  0  0
    0.0898   -4.8676    5.0433 H   0  0  0  0  0  0  0  0  0  0  0  0
    0.0615   -0.6064    5.3679 H   0  0  0  0  0  0  0  0  0  0  0  0
    0.0942   -4.1053    8.3443 H   0  0  0  0  0  0  0  0  0  0  0  0
   -0.7939   -4.7113    6.9258 H   0  0  0  0  0  0  0  0  0  0  0  0
    0.9859   -4.6876    6.9181 H   0  0  0  0  0  0  0  0  0  0  0  0
  1  2  1  0  0  0  0
  1 18  1  0  0  0  0
  1 19  1  0  0  0  0
  1 20  1  0  0  0  0
  2  7  2  0  0  0  0
  2  3  1  0  0  0  0
  3  4  2  0  0  0  0
  3 21  1  0  0  0  0
  4  5  1  0  0  0  0
  4 22  1  0  0  0  0
  5  6  2  0  0  0  0
  5 23  1  0  0  0  0
  6 11  1  0  0  0  0
  6  7  1  0  0  0  0
  7  8  1  0  0  0  0
  8  9  1  0  0  0  0
  8 10  1  0  0  0  0
 10 15  2  0  0  0  0
 10 11  1  0  0  0  0
 11 12  2  0  0  0  0
 12 13  1  0  0  0  0
 12 24  1  0  0  0  0
 13 14  2  0  0  0  0
 13 25  1  0  0  0  0
 14 15  1  0  0  0  0
 14 16  1  0  0  0  0
 15 26  1  0  0  0  0
 16 17  1  0  0  0  0
 17 27  1  0  0  0  0
 17 28  1  0  0  0  0
 17 29  1  0  0  0  0
M  END
>  <cansmi>
COc1ccc2c(c1)[nH]c1c2cccc1C

>  <HBA2>
1

>  <HBD>
1

>  <logP>
3.6381

>  <TPSA>
25.02

>  <MW>
211.259

$$$$
ZINC64220366
 OpenBabel02121623173D

 35 35  0  0  1  0  0  0  0  0999 V2000
   -0.0187    1.5258    0.0104 C   0  0  0  0  0  0  0  0  0  0  0  0
    0.0021   -0.0041    0.0020 C   0  0  1  0  0  0  0  0  0  0  0  0
    0.5123   -0.3556   -0.8948 H   0  0  0  0  0  0  0  0  0  0  0  0
    0.7421   -0.5109    1.2415 C   0  0  0  0  0  0  0  0  0  0  0  0
    0.8700   -2.0108    1.1719 C   0  0  0  0  0  0  0  0  0  0  0  0
    0.4161   -2.6124    0.2283 O   0  0  0  0  0  0  0  0  0  0  0  0
    1.5643   -2.7601    2.2799 C   0  0  0  0  0  0  0  0  0  0  0  0
    1.5569   -4.2575    1.9656 C   0  0  0  0  0  0  0  0  0  0  0  0
    2.2512   -5.0067    3.0735 C   0  0  0  0  0  0  0  0  0  0  0  0
    3.6142   -5.2289    3.0073 C   0  0  0  0  0  0  0  0  0  0  0  0
    4.2557   -5.9157    4.0211 C   0  0  0  0  0  0  0  0  0  0  0  0
    3.5327   -6.3827    5.1070 C   0  0  0  0  0  0  0  0  0  0  0  0
    2.1609   -6.1587    5.1739 C   0  0  0  0  0  0  0  0  0  0  0  0
    1.5248   -5.4654    4.1566 C   0  0  0  0  0  0  0  0  0  0  0  0
    1.4469   -6.6151    6.2375 O   0  0  0  0  0  0  0  0  0  0  0  0
    0.0430   -6.3486    6.2390 C   0  0  0  0  0  0  0  0  0  0  0  0
    4.1622   -7.0589    6.1050 O   0  0  0  0  0  0  0  0  0  0  0  0
   -1.3386   -0.4987    0.0122 O   0  0  0  0  0  0  0  0  0  0  0  0
    1.0039    1.9031    0.0027 H   0  0  0  0  0  0  0  0  0  0  0  0
   -0.5459    1.8868   -0.8726 H   0  0  0  0  0  0  0  0  0  0  0  0
   -0.5289    1.8773    0.9072 H   0  0  0  0  0  0  0  0  0  0  0  0
    1.7350   -0.0630    1.2804 H   0  0  0  0  0  0  0  0  0  0  0  0
    0.1838   -0.2350    2.1361 H   0  0  0  0  0  0  0  0  0  0  0  0
    2.5936   -2.4117    2.3647 H   0  0  0  0  0  0  0  0  0  0  0  0
    1.0424   -2.5837    3.2204 H   0  0  0  0  0  0  0  0  0  0  0  0
    0.5276   -4.6059    1.8808 H   0  0  0  0  0  0  0  0  0  0  0  0
    2.0789   -4.4339    1.0250 H   0  0  0  0  0  0  0  0  0  0  0  0
    4.1789   -4.8654    2.1615 H   0  0  0  0  0  0  0  0  0  0  0  0
    5.3204   -6.0885    3.9667 H   0  0  0  0  0  0  0  0  0  0  0  0
    0.4609   -5.2870    4.2079 H   0  0  0  0  0  0  0  0  0  0  0  0
   -0.4145   -6.8054    5.3614 H   0  0  0  0  0  0  0  0  0  0  0  0
   -0.4051   -6.7656    7.1409 H   0  0  0  0  0  0  0  0  0  0  0  0
   -0.1223   -5.2714    6.2157 H   0  0  0  0  0  0  0  0  0  0  0  0
    4.4895   -6.4933    6.8177 H   0  0  0  0  0  0  0  0  0  0  0  0
   -1.8677   -0.2163   -0.7464 H   0  0  0  0  0  0  0  0  0  0  0  0
  1  2  1  0  0  0  0
  1 19  1  0  0  0  0
  1 20  1  0  0  0  0
  1 21  1  0  0  0  0
  2  3  1  6  0  0  0
  2  4  1  0  0  0  0
  2 18  1  0  0  0  0
  4  5  1  0  0  0  0
  4 22  1  0  0  0  0
  4 23  1  0  0  0  0
  5  6  2  0  0  0  0
  5  7  1  0  0  0  0
  7  8  1  0  0  0  0
  7 24  1  0  0  0  0
  7 25  1  0  0  0  0
  8  9  1  0  0  0  0
  8 26  1  0  0  0  0
  8 27  1  0  0  0  0
  9 14  2  0  0  0  0
  9 10  1  0  0  0  0
 10 11  2  0  0  0  0
 10 28  1  0  0  0  0
 11 12  1  0  0  0  0
 11 29  1  0  0  0  0
 12 13  2  0  0  0  0
 12 17  1  0  0  0  0
 13 14  1  0  0  0  0
 13 15  1  0  0  0  0
 14 30  1  0  0  0  0
 15 16  1  0  0  0  0
 16 31  1  0  0  0  0
 16 32  1  0  0  0  0
 16 33  1  0  0  0  0
 17 34  1  0  0  0  0
 18 35  1  0  0  0  0
M  END
>  <cansmi>
COc1cc(CCC(=O)C[C@@H](O)C)ccc1O

>  <HBA2>
4

>  <HBD>
2

>  <logP>
1.6734

>  <TPSA>
66.76

>  <MW>
238.28

$$$$
ZINC64220367
 OpenBabel02121623173D

 35 35  0  0  1  0  0  0  0  0999 V2000
   -0.0187    1.5258    0.0104 C   0  0  0  0  0  0  0  0  0  0  0  0
    0.0021   -0.0041    0.0020 C   0  0  2  0  0  0  0  0  0  0  0  0
    0.5123   -0.3556   -0.8948 H   0  0  0  0  0  0  0  0  0  0  0  0
   -1.4333   -0.5336    0.0129 C   0  0  0  0  0  0  0  0  0  0  0  0
   -1.4159   -2.0348   -0.1192 C   0  0  0  0  0  0  0  0  0  0  0  0
   -0.3640   -2.6205   -0.2124 O   0  0  0  0  0  0  0  0  0  0  0  0
   -2.7112   -2.8048   -0.1350 C   0  0  0  0  0  0  0  0  0  0  0  0
   -2.4145   -4.2990   -0.2775 C   0  0  0  0  0  0  0  0  0  0  0  0
   -3.7098   -5.0691   -0.2933 C   0  0  0  0  0  0  0  0  0  0  0  0
   -4.2581   -5.5210    0.8927 C   0  0  0  0  0  0  0  0  0  0  0  0
   -5.4461   -6.2278    0.8835 C   0  0  0  0  0  0  0  0  0  0  0  0
   -6.0903   -6.4844   -0.3161 C   0  0  0  0  0  0  0  0  0  0  0  0
   -5.5387   -6.0292   -1.5098 C   0  0  0  0  0  0  0  0  0  0  0  0
   -4.3501   -5.3171   -1.4931 C   0  0  0  0  0  0  0  0  0  0  0  0
   -6.1673   -6.2785   -2.6897 O   0  0  0  0  0  0  0  0  0  0  0  0
   -5.5432   -5.7810   -3.8751 C   0  0  0  0  0  0  0  0  0  0  0  0
   -7.2588   -7.1800   -0.3269 O   0  0  0  0  0  0  0  0  0  0  0  0
    0.6932   -0.4774    1.1597 O   0  0  0  0  0  0  0  0  0  0  0  0
    1.0039    1.9031    0.0027 H   0  0  0  0  0  0  0  0  0  0  0  0
   -0.5459    1.8868   -0.8726 H   0  0  0  0  0  0  0  0  0  0  0  0
   -0.5289    1.8773    0.9072 H   0  0  0  0  0  0  0  0  0  0  0  0
   -1.9156   -0.2570    0.9504 H   0  0  0  0  0  0  0  0  0  0  0  0
   -1.9862   -0.1019   -0.8214 H   0  0  0  0  0  0  0  0  0  0  0  0
   -3.2500   -2.6286    0.7960 H   0  0  0  0  0  0  0  0  0  0  0  0
   -3.3206   -2.4735   -0.9758 H   0  0  0  0  0  0  0  0  0  0  0  0
   -1.8757   -4.4752   -1.2085 H   0  0  0  0  0  0  0  0  0  0  0  0
   -1.8051   -4.6303    0.5633 H   0  0  0  0  0  0  0  0  0  0  0  0
   -3.7569   -5.3216    1.8284 H   0  0  0  0  0  0  0  0  0  0  0  0
   -5.8719   -6.5803    1.8113 H   0  0  0  0  0  0  0  0  0  0  0  0
   -3.9219   -4.9594   -2.4178 H   0  0  0  0  0  0  0  0  0  0  0  0
   -4.5500   -6.2190   -3.9740 H   0  0  0  0  0  0  0  0  0  0  0  0
   -6.1462   -6.0482   -4.7428 H   0  0  0  0  0  0  0  0  0  0  0  0
   -5.4573   -4.6962   -3.8125 H   0  0  0  0  0  0  0  0  0  0  0  0
   -8.0473   -6.6256   -0.2497 H   0  0  0  0  0  0  0  0  0  0  0  0
    1.6114   -0.1800    1.2187 H   0  0  0  0  0  0  0  0  0  0  0  0
  1  2  1  0  0  0  0
  1 19  1  0  0  0  0
  1 20  1  0  0  0  0
  1 21  1  0  0  0  0
  2  3  1  6  0  0  0
  2  4  1  0  0  0  0
  2 18  1  0  0  0  0
  4  5  1  0  0  0  0
  4 22  1  0  0  0  0
  4 23  1  0  0  0  0
  5  6  2  0  0  0  0
  5  7  1  0  0  0  0
  7  8  1  0  0  0  0
  7 24  1  0  0  0  0
  7 25  1  0  0  0  0
  8  9  1  0  0  0  0
  8 26  1  0  0  0  0
  8 27  1  0  0  0  0
  9 14  2  0  0  0  0
  9 10  1  0  0  0  0
 10 11  2  0  0  0  0
 10 28  1  0  0  0  0
 11 12  1  0  0  0  0
 11 29  1  0  0  0  0
 12 13  2  0  0  0  0
 12 17  1  0  0  0  0
 13 14  1  0  0  0  0
 13 15  1  0  0  0  0
 14 30  1  0  0  0  0
 15 16  1  0  0  0  0
 16 31  1  0  0  0  0
 16 32  1  0  0  0  0
 16 33  1  0  0  0  0
 17 34  1  0  0  0  0
 18 35  1  0  0  0  0
M  END
>  <cansmi>
COc1cc(CCC(=O)C[C@H](O)C)ccc1O

>  <HBA2>
4

>  <HBD>
2

>  <logP>
1.6734

>  <TPSA>
66.76

>  <MW>
238.28

$$$$
ZINC19535046
 OpenBabel02121623173D

 51 54  0  0  1  0  0  0  0  0999 V2000
   -0.0173    1.4248    0.0099 C   0  0  0  0  0  0  0  0  0  0  0  0
    0.0021   -0.0041    0.0020 O   0  0  0  0  0  0  0  0  0  0  0  0
    0.6062   -0.6075   -1.0564 C   0  0  0  0  0  0  0  0  0  0  0  0
    1.1733    0.1576   -2.0629 C   0  0  0  0  0  0  0  0  0  0  0  0
    1.7826   -0.4619   -3.1357 C   0  0  0  0  0  0  0  0  0  0  0  0
    1.8331   -1.8457   -3.2142 C   0  0  0  0  0  0  0  0  0  0  0  0
    1.2757   -2.6132   -2.2139 C   0  0  0  0  0  0  0  0  0  0  0  0
    0.6625   -1.9939   -1.1304 C   0  0  0  0  0  0  0  0  0  0  0  0
    0.1113   -2.7480   -0.1419 O   0  0  0  0  0  0  0  0  0  0  0  0
   -1.2599   -3.1193   -0.2972 C   0  0  0  0  0  0  0  0  0  0  0  0
    1.3208   -4.1170   -2.2489 C   0  0  0  0  0  0  0  0  0  0  0  0
    1.6210   -4.5978   -3.6053 N   0  0  2  0  0  0  0  0  0  0  0  0
    1.7800   -6.0604   -3.5952 C   0  0  0  0  0  0  0  0  0  0  0  0
    1.7966   -6.5683   -5.0362 C   0  0  0  0  0  0  0  0  0  0  0  0
    2.8352   -5.8097   -5.8229 C   0  0  0  0  0  0  0  0  0  0  0  0
    3.3118   -6.3666   -6.9999 C   0  0  0  0  0  0  0  0  0  0  0  0
    4.2652   -5.7023   -7.7511 C   0  0  0  0  0  0  0  0  0  0  0  0
    4.7444   -4.4691   -7.3187 C   0  0  0  0  0  0  0  0  0  0  0  0
    4.2651   -3.9197   -6.1439 C   0  0  0  0  0  0  0  0  0  0  0  0
    3.3088   -4.5900   -5.3916 C   0  0  0  0  0  0  0  0  0  0  0  0
    2.8281   -3.9420   -4.1199 C   0  0  1  0  0  0  0  0  0  0  0  0
    3.6157   -3.9921   -3.3681 H   0  0  0  0  0  0  0  0  0  0  0  0
    2.5015   -2.4737   -4.4092 C   0  0  0  0  0  0  0  0  0  0  0  0
    5.6813   -3.8070   -8.0490 O   0  0  0  0  0  0  0  0  0  0  0  0
    6.1263   -2.5466   -7.5436 C   0  0  0  0  0  0  0  0  0  0  0  0
    4.7315   -6.2512   -8.9047 O   0  0  0  0  0  0  0  0  0  0  0  0
    4.1930   -7.5194   -9.2838 C   0  0  0  0  0  0  0  0  0  0  0  0
    1.0053    1.8021    0.0021 H   0  0  0  0  0  0  0  0  0  0  0  0
   -0.5445    1.7859   -0.8732 H   0  0  0  0  0  0  0  0  0  0  0  0
   -0.5275    1.7763    0.9067 H   0  0  0  0  0  0  0  0  0  0  0  0
    1.1385    1.2357   -2.0085 H   0  0  0  0  0  0  0  0  0  0  0  0
    2.2230    0.1357   -3.9201 H   0  0  0  0  0  0  0  0  0  0  0  0
   -1.8748   -2.2213   -0.3580 H   0  0  0  0  0  0  0  0  0  0  0  0
   -1.3772   -3.7025   -1.2105 H   0  0  0  0  0  0  0  0  0  0  0  0
   -1.5736   -3.7171    0.5585 H   0  0  0  0  0  0  0  0  0  0  0  0
    2.0926   -4.4689   -1.5644 H   0  0  0  0  0  0  0  0  0  0  0  0
    0.3552   -4.5123   -1.9336 H   0  0  0  0  0  0  0  0  0  0  0  0
    2.7178   -6.3220   -3.1053 H   0  0  0  0  0  0  0  0  0  0  0  0
    0.9471   -6.5141   -3.0581 H   0  0  0  0  0  0  0  0  0  0  0  0
    2.0390   -7.6310   -5.0442 H   0  0  0  0  0  0  0  0  0  0  0  0
    0.8160   -6.4155   -5.4868 H   0  0  0  0  0  0  0  0  0  0  0  0
    2.9373   -7.3236   -7.3318 H   0  0  0  0  0  0  0  0  0  0  0  0
    4.6369   -2.9627   -5.8087 H   0  0  0  0  0  0  0  0  0  0  0  0
    1.8342   -2.4146   -5.2689 H   0  0  0  0  0  0  0  0  0  0  0  0
    3.4230   -1.9357   -4.6319 H   0  0  0  0  0  0  0  0  0  0  0  0
    6.5688   -2.6864   -6.5573 H   0  0  0  0  0  0  0  0  0  0  0  0
    6.8710   -2.1265   -8.2196 H   0  0  0  0  0  0  0  0  0  0  0  0
    5.2786   -1.8656   -7.4683 H   0  0  0  0  0  0  0  0  0  0  0  0
    4.4046   -8.2516   -8.5046 H   0  0  0  0  0  0  0  0  0  0  0  0
    3.1146   -7.4313   -9.4164 H   0  0  0  0  0  0  0  0  0  0  0  0
    4.6488   -7.8426  -10.2197 H   0  0  0  0  0  0  0  0  0  0  0  0
  1  2  1  0  0  0  0
  1 28  1  0  0  0  0
  1 29  1  0  0  0  0
  1 30  1  0  0  0  0
  2  3  1  0  0  0  0
  3  8  2  0  0  0  0
  3  4  1  0  0  0  0
  4  5  2  0  0  0  0
  4 31  1  0  0  0  0
  5  6  1  0  0  0  0
  5 32  1  0  0  0  0
  6 23  1  0  0  0  0
  6  7  2  0  0  0  0
  7  8  1  0  0  0  0
  7 11  1  0  0  0  0
  8  9  1  0  0  0  0
  9 10  1  0  0  0  0
 10 33  1  0  0  0  0
 10 34  1  0  0  0  0
 10 35  1  0  0  0  0
 11 36  1  0  0  0  0
 11 37  1  0  0  0  0
 12 11  1  1  0  0  0
 12 21  1  0  0  0  0
 12 13  1  0  0  0  0
 13 14  1  0  0  0  0
 13 38  1  0  0  0  0
 13 39  1  0  0  0  0
 14 15  1  0  0  0  0
 14 40  1  0  0  0  0
 14 41  1  0  0  0  0
 15 20  2  0  0  0  0
 15 16  1  0  0  0  0
 16 17  2  0  0  0  0
 16 42  1  0  0  0  0
 17 18  1  0  0  0  0
 17 26  1  0  0  0  0
 18 19  2  0  0  0  0
 18 24  1  0  0  0  0
 19 20  1  0  0  0  0
 19 43  1  0  0  0  0
 20 21  1  0  0  0  0
 21 22  1  1  0  0  0
 21 23  1  0  0  0  0
 23 44  1  0  0  0  0
 23 45  1  0  0  0  0
 24 25  1  0  0  0  0
 25 46  1  0  0  0  0
 25 47  1  0  0  0  0
 25 48  1  0  0  0  0
 26 27  1  0  0  0  0
 27 49  1  0  0  0  0
 27 50  1  0  0  0  0
 27 51  1  0  0  0  0
M  END
>  <cansmi>
COc1cc2CCN3[C@@H](c2cc1OC)Cc1c(C3)c(OC)c(cc1)OC

>  <HBA2>
5

>  <HBD>
0

>  <logP>
3.3144

>  <TPSA>
40.16

>  <MW>
355.428

$$$$
ZINC19535049
 OpenBabel02121623173D

 51 54  0  0  1  0  0  0  0  0999 V2000
   -0.0173    1.4248    0.0099 C   0  0  0  0  0  0  0  0  0  0  0  0
    0.0021   -0.0041    0.0020 O   0  0  0  0  0  0  0  0  0  0  0  0
    0.6062   -0.6075   -1.0564 C   0  0  0  0  0  0  0  0  0  0  0  0
    1.1733    0.1575   -2.0630 C   0  0  0  0  0  0  0  0  0  0  0  0
    1.7875   -0.4619   -3.1331 C   0  0  0  0  0  0  0  0  0  0  0  0
    1.8401   -1.8456   -3.2106 C   0  0  0  0  0  0  0  0  0  0  0  0
    1.2734   -2.6131   -2.2154 C   0  0  0  0  0  0  0  0  0  0  0  0
    0.6625   -1.9939   -1.1304 C   0  0  0  0  0  0  0  0  0  0  0  0
    0.1132   -2.7480   -0.1410 O   0  0  0  0  0  0  0  0  0  0  0  0
   -1.2582   -3.1194   -0.2938 C   0  0  0  0  0  0  0  0  0  0  0  0
    1.2910   -4.1170   -2.2655 C   0  0  0  0  0  0  0  0  0  0  0  0
    2.3003   -4.5959   -3.2210 N   0  0  1  0  0  0  0  0  0  0  0  0
    2.2149   -6.0592   -3.3480 C   0  0  0  0  0  0  0  0  0  0  0  0
    3.4429   -6.5648   -4.1037 C   0  0  0  0  0  0  0  0  0  0  0  0
    3.5780   -5.8097   -5.4017 C   0  0  0  0  0  0  0  0  0  0  0  0
    4.3417   -6.3677   -6.4156 C   0  0  0  0  0  0  0  0  0  0  0  0
    4.4915   -5.7070   -7.6220 C   0  0  0  0  0  0  0  0  0  0  0  0
    3.8700   -4.4762   -7.8131 C   0  0  0  0  0  0  0  0  0  0  0  0
    3.1092   -3.9259   -6.7981 C   0  0  0  0  0  0  0  0  0  0  0  0
    2.9602   -4.5925   -5.5884 C   0  0  0  0  0  0  0  0  0  0  0  0
    2.1169   -3.9444   -4.5223 C   0  0  2  0  0  0  0  0  0  0  0  0
    1.0668   -3.9984   -4.8092 H   0  0  0  0  0  0  0  0  0  0  0  0
    2.5272   -2.4740   -4.3947 C   0  0  0  0  0  0  0  0  0  0  0  0
    4.0109   -3.8170   -8.9942 O   0  0  0  0  0  0  0  0  0  0  0  0
    3.3445   -2.5590   -9.1185 C   0  0  0  0  0  0  0  0  0  0  0  0
    5.2416   -6.2563   -8.6145 O   0  0  0  0  0  0  0  0  0  0  0  0
    5.8488   -7.5213   -8.3444 C   0  0  0  0  0  0  0  0  0  0  0  0
    1.0053    1.8021    0.0021 H   0  0  0  0  0  0  0  0  0  0  0  0
   -0.5445    1.7859   -0.8732 H   0  0  0  0  0  0  0  0  0  0  0  0
   -0.5275    1.7763    0.9067 H   0  0  0  0  0  0  0  0  0  0  0  0
    1.1346    1.2356   -2.0108 H   0  0  0  0  0  0  0  0  0  0  0  0
    2.2301    0.1358   -3.9162 H   0  0  0  0  0  0  0  0  0  0  0  0
   -1.8733   -2.2216   -0.3535 H   0  0  0  0  0  0  0  0  0  0  0  0
   -1.3771   -3.7027   -1.2069 H   0  0  0  0  0  0  0  0  0  0  0  0
   -1.5702   -3.7173    0.5625 H   0  0  0  0  0  0  0  0  0  0  0  0
    1.5226   -4.5061   -1.2740 H   0  0  0  0  0  0  0  0  0  0  0  0
    0.3086   -4.4772   -2.5708 H   0  0  0  0  0  0  0  0  0  0  0  0
    2.1856   -6.5104   -2.3562 H   0  0  0  0  0  0  0  0  0  0  0  0
    1.3125   -6.3256   -3.8983 H   0  0  0  0  0  0  0  0  0  0  0  0
    4.3341   -6.4064   -3.4966 H   0  0  0  0  0  0  0  0  0  0  0  0
    3.3290   -7.6286   -4.3122 H   0  0  0  0  0  0  0  0  0  0  0  0
    4.8223   -7.3228   -6.2628 H   0  0  0  0  0  0  0  0  0  0  0  0
    2.6274   -2.9709   -6.9468 H   0  0  0  0  0  0  0  0  0  0  0  0
    2.2446   -1.9399   -5.3019 H   0  0  0  0  0  0  0  0  0  0  0  0
    3.6072   -2.4104   -4.2616 H   0  0  0  0  0  0  0  0  0  0  0  0
    3.7146   -1.8747   -8.3551 H   0  0  0  0  0  0  0  0  0  0  0  0
    3.5388   -2.1410  -10.1063 H   0  0  0  0  0  0  0  0  0  0  0  0
    2.2717   -2.7019   -8.9891 H   0  0  0  0  0  0  0  0  0  0  0  0
    6.5180   -7.4280   -7.4891 H   0  0  0  0  0  0  0  0  0  0  0  0
    5.0747   -8.2557   -8.1217 H   0  0  0  0  0  0  0  0  0  0  0  0
    6.4168   -7.8453   -9.2165 H   0  0  0  0  0  0  0  0  0  0  0  0
  1  2  1  0  0  0  0
  1 28  1  0  0  0  0
  1 29  1  0  0  0  0
  1 30  1  0  0  0  0
  2  3  1  0  0  0  0
  3  8  2  0  0  0  0
  3  4  1  0  0  0  0
  4  5  2  0  0  0  0
  4 31  1  0  0  0  0
  5  6  1  0  0  0  0
  5 32  1  0  0  0  0
  6 23  1  0  0  0  0
  6  7  2  0  0  0  0
  7  8  1  0  0  0  0
  7 11  1  0  0  0  0
  8  9  1  0  0  0  0
  9 10  1  0  0  0  0
 10 33  1  0  0  0  0
 10 34  1  0  0  0  0
 10 35  1  0  0  0  0
 11 36  1  0  0  0  0
 11 37  1  0  0  0  0
 12 11  1  1  0  0  0
 12 21  1  0  0  0  0
 12 13  1  0  0  0  0
 13 14  1  0  0  0  0
 13 38  1  0  0  0  0
 13 39  1  0  0  0  0
 14 15  1  0  0  0  0
 14 40  1  0  0  0  0
 14 41  1  0  0  0  0
 15 20  2  0  0  0  0
 15 16  1  0  0  0  0
 16 17  2  0  0  0  0
 16 42  1  0  0  0  0
 17 18  1  0  0  0  0
 17 26  1  0  0  0  0
 18 19  2  0  0  0  0
 18 24  1  0  0  0  0
 19 20  1  0  0  0  0
 19 43  1  0  0  0  0
 20 21  1  0  0  0  0
 21 22  1  6  0  0  0
 21 23  1  0  0  0  0
 23 44  1  0  0  0  0
 23 45  1  0  0  0  0
 24 25  1  0  0  0  0
 25 46  1  0  0  0  0
 25 47  1  0  0  0  0
 25 48  1  0  0  0  0
 26 27  1  0  0  0  0
 27 49  1  0  0  0  0
 27 50  1  0  0  0  0
 27 51  1  0  0  0  0
M  END
>  <cansmi>
COc1cc2CCN3[C@H](c2cc1OC)Cc1c(C3)c(OC)c(cc1)OC

>  <HBA2>
5

>  <HBD>
0

>  <logP>
3.3144

>  <TPSA>
40.16

>  <MW>
355.428

$$$$
ZINC08680006
 OpenBabel02121623173D

 77 81  0  0  1  0  0  0  0  0999 V2000
   -8.0272   -1.9164   -6.6831 C   0  0  0  0  0  0  0  0  0  0  0  0
   -6.7618   -1.1126   -6.3770 C   0  0  2  0  0  0  0  0  0  0  0  0
   -6.6592   -0.3059   -7.1028 H   0  0  0  0  0  0  0  0  0  0  0  0
   -5.5405   -2.0320   -6.4594 C   0  0  1  0  0  0  0  0  0  0  0  0
   -5.4435   -2.4187   -7.4738 H   0  0  0  0  0  0  0  0  0  0  0  0
   -4.2851   -1.2344   -6.0933 C   0  0  1  0  0  0  0  0  0  0  0  0
   -4.1365   -0.4350   -6.8192 H   0  0  0  0  0  0  0  0  0  0  0  0
   -4.4657   -0.6316   -4.6968 C   0  0  1  0  0  0  0  0  0  0  0  0
   -3.6001   -0.0169   -4.4497 H   0  0  0  0  0  0  0  0  0  0  0  0
   -5.7285    0.2338   -4.6825 C   0  0  1  0  0  0  0  0  0  0  0  0
   -5.6122    1.0582   -5.3860 H   0  0  0  0  0  0  0  0  0  0  0  0
   -6.8536   -0.5615   -5.0617 O   0  0  0  0  0  0  0  0  0  0  0  0
   -5.9344    0.7546   -3.3678 O   0  0  0  0  0  0  0  0  0  0  0  0
   -7.0274    1.6699   -3.2698 C   0  0  0  0  0  0  0  0  0  0  0  0
   -7.1538    2.1607   -1.8262 C   0  0  2  0  0  0  0  0  0  0  0  0
   -7.2424    1.3045   -1.1575 H   0  0  0  0  0  0  0  0  0  0  0  0
   -8.3981    3.0427   -1.6939 C   0  0  1  0  0  0  0  0  0  0  0  0
   -9.2876    2.4534   -1.9166 H   0  0  0  0  0  0  0  0  0  0  0  0
   -8.4846    3.5786   -0.2615 C   0  0  1  0  0  0  0  0  0  0  0  0
   -8.6037    2.7466    0.4325 H   0  0  0  0  0  0  0  0  0  0  0  0
   -7.1957    4.3387    0.0661 C   0  0  1  0  0  0  0  0  0  0  0  0
   -7.2253    4.6764    1.1021 H   0  0  0  0  0  0  0  0  0  0  0  0
   -5.9978    3.4067   -0.1341 C   0  0  1  0  0  0  0  0  0  0  0  0
   -6.0712    2.5669    0.5569 H   0  0  0  0  0  0  0  0  0  0  0  0
   -5.9943    2.9197   -1.4776 O   0  0  0  0  0  0  0  0  0  0  0  0
   -4.7881    4.1251    0.1156 O   0  0  0  0  0  0  0  0  0  0  0  0
   -3.6323    3.4152    0.0832 C   0  0  0  0  0  0  0  0  0  0  0  0
   -3.6697    2.0523   -0.1851 C   0  0  0  0  0  0  0  0  0  0  0  0
   -2.4966    1.3200   -0.2177 C   0  0  0  0  0  0  0  0  0  0  0  0
   -1.2727    1.9636    0.0186 C   0  0  0  0  0  0  0  0  0  0  0  0
   -1.2384    3.3452    0.2892 C   0  0  0  0  0  0  0  0  0  0  0  0
   -2.4239    4.0584    0.3182 C   0  0  0  0  0  0  0  0  0  0  0  0
   -0.0631    3.9786    0.5133 O   0  0  0  0  0  0  0  0  0  0  0  0
    1.0558    3.2099    0.9549 C   0  0  1  0  0  0  0  0  0  0  0  0
    0.8666    2.8372    1.9616 H   0  0  0  0  0  0  0  0  0  0  0  0
    1.2662    2.0250    0.0008 C   0  0  0  0  0  0  0  0  0  0  0  0
   -0.0144    1.2096    0.0087 C   0  0  0  0  0  0  0  0  0  0  0  0
    0.0021   -0.0041    0.0020 O   0  0  0  0  0  0  0  0  0  0  0  0
    2.2897    4.0750    0.9624 C   0  0  0  0  0  0  0  0  0  0  0  0
    2.4559    5.0479   -0.0057 C   0  0  0  0  0  0  0  0  0  0  0  0
    3.5834    5.8478    0.0002 C   0  0  0  0  0  0  0  0  0  0  0  0
    4.5554    5.6678    0.9711 C   0  0  0  0  0  0  0  0  0  0  0  0
    4.3909    4.6847    1.9422 C   0  0  0  0  0  0  0  0  0  0  0  0
    3.2557    3.8902    1.9339 C   0  0  0  0  0  0  0  0  0  0  0  0
    5.3423    4.5039    2.8969 O   0  0  0  0  0  0  0  0  0  0  0  0
    5.6680    6.4498    0.9748 O   0  0  0  0  0  0  0  0  0  0  0  0
    5.7696    7.4383   -0.0521 C   0  0  0  0  0  0  0  0  0  0  0  0
   -2.5285   -0.0097   -0.4822 O   0  0  0  0  0  0  0  0  0  0  0  0
   -7.0730    5.4673   -0.8019 O   0  0  0  0  0  0  0  0  0  0  0  0
   -9.6023    4.4617   -0.1482 O   0  0  0  0  0  0  0  0  0  0  0  0
   -8.3088    4.1369   -2.6086 O   0  0  0  0  0  0  0  0  0  0  0  0
   -4.5955   -1.6817   -3.7364 O   0  0  0  0  0  0  0  0  0  0  0  0
   -3.1497   -2.1022   -6.0962 O   0  0  0  0  0  0  0  0  0  0  0  0
   -5.6988   -3.1193   -5.5457 O   0  0  0  0  0  0  0  0  0  0  0  0
   -8.1300   -2.7228   -5.9569 H   0  0  0  0  0  0  0  0  0  0  0  0
   -8.8966   -1.2616   -6.6244 H   0  0  0  0  0  0  0  0  0  0  0  0
   -7.9565   -2.3374   -7.6860 H   0  0  0  0  0  0  0  0  0  0  0  0
   -7.9490    1.1683   -3.5651 H   0  0  0  0  0  0  0  0  0  0  0  0
   -6.8495    2.5201   -3.9283 H   0  0  0  0  0  0  0  0  0  0  0  0
   -4.6156    1.5644   -0.3688 H   0  0  0  0  0  0  0  0  0  0  0  0
   -2.4095    5.1184    0.5245 H   0  0  0  0  0  0  0  0  0  0  0  0
    2.0397    1.4757    0.3170 H   0  0  0  0  0  0  0  0  0  0  0  0
    1.4674    2.3905   -1.0062 H   0  0  0  0  0  0  0  0  0  0  0  0
    1.7012    5.1860   -0.7659 H   0  0  0  0  0  0  0  0  0  0  0  0
    3.7087    6.6100   -0.7546 H   0  0  0  0  0  0  0  0  0  0  0  0
    3.1257    3.1263    2.6862 H   0  0  0  0  0  0  0  0  0  0  0  0
    6.0292    3.8688    2.6524 H   0  0  0  0  0  0  0  0  0  0  0  0
    5.7569    6.9517   -1.0274 H   0  0  0  0  0  0  0  0  0  0  0  0
    4.9276    8.1266    0.0215 H   0  0  0  0  0  0  0  0  0  0  0  0
    6.7018    7.9907    0.0662 H   0  0  0  0  0  0  0  0  0  0  0  0
   -2.4557   -0.2256   -1.4220 H   0  0  0  0  0  0  0  0  0  0  0  0
   -6.2751    5.9929   -0.6532 H   0  0  0  0  0  0  0  0  0  0  0  0
   -9.7136    4.8442    0.7329 H   0  0  0  0  0  0  0  0  0  0  0  0
   -9.0639    4.7401   -2.5752 H   0  0  0  0  0  0  0  0  0  0  0  0
   -4.7181   -1.3717   -2.8287 H   0  0  0  0  0  0  0  0  0  0  0  0
   -2.3191   -1.6639   -5.8658 H   0  0  0  0  0  0  0  0  0  0  0  0
   -6.4759   -3.6683   -5.7184 H   0  0  0  0  0  0  0  0  0  0  0  0
  1  2  1  0  0  0  0
  1 55  1  0  0  0  0
  1 56  1  0  0  0  0
  1 57  1  0  0  0  0
  2  3  1  6  0  0  0
  2 12  1  0  0  0  0
  2  4  1  0  0  0  0
  4  5  1  6  0  0  0
  4  6  1  0  0  0  0
  4 54  1  0  0  0  0
  6  7  1  6  0  0  0
  6  8  1  0  0  0  0
  6 53  1  0  0  0  0
  8  9  1  1  0  0  0
  8 10  1  0  0  0  0
  8 52  1  0  0  0  0
 10 11  1  6  0  0  0
 10 12  1  0  0  0  0
 10 13  1  0  0  0  0
 13 14  1  0  0  0  0
 14 15  1  0  0  0  0
 14 58  1  0  0  0  0
 14 59  1  0  0  0  0
 15 16  1  1  0  0  0
 15 25  1  0  0  0  0
 15 17  1  0  0  0  0
 17 18  1  6  0  0  0
 17 19  1  0  0  0  0
 17 51  1  0  0  0  0
 19 20  1  1  0  0  0
 19 21  1  0  0  0  0
 19 50  1  0  0  0  0
 21 22  1  1  0  0  0
 21 23  1  0  0  0  0
 21 49  1  0  0  0  0
 23 24  1  1  0  0  0
 23 25  1  0  0  0  0
 23 26  1  0  0  0  0
 26 27  1  0  0  0  0
 27 32  2  0  0  0  0
 27 28  1  0  0  0  0
 28 29  2  0  0  0  0
 28 60  1  0  0  0  0
 29 30  1  0  0  0  0
 29 48  1  0  0  0  0
 30 37  1  0  0  0  0
 30 31  2  0  0  0  0
 31 32  1  0  0  0  0
 31 33  1  0  0  0  0
 32 61  1  0  0  0  0
 33 34  1  0  0  0  0
 34 35  1  1  0  0  0
 34 36  1  0  0  0  0
 34 39  1  0  0  0  0
 36 37  1  0  0  0  0
 36 62  1  0  0  0  0
 36 63  1  0  0  0  0
 37 38  2  0  0  0  0
 39 44  2  0  0  0  0
 39 40  1  0  0  0  0
 40 41  2  0  0  0  0
 40 64  1  0  0  0  0
 41 42  1  0  0  0  0
 41 65  1  0  0  0  0
 42 43  2  0  0  0  0
 42 46  1  0  0  0  0
 43 44  1  0  0  0  0
 43 45  1  0  0  0  0
 44 66  1  0  0  0  0
 45 67  1  0  0  0  0
 46 47  1  0  0  0  0
 47 68  1  0  0  0  0
 47 69  1  0  0  0  0
 47 70  1  0  0  0  0
 48 71  1  0  0  0  0
 49 72  1  0  0  0  0
 50 73  1  0  0  0  0
 51 74  1  0  0  0  0
 52 75  1  0  0  0  0
 53 76  1  0  0  0  0
 54 77  1  0  0  0  0
M  END
>  <cansmi>
COc1ccc(cc1O)[C@@H]1CC(=O)c2c(O1)cc(cc2O)O[C@@H]1O[C@H](CO[C@@H]2O[C@H](C)[C@@H]([C@@H]([C@@H]2O)O)O)[C@@H]([C@@H]([C@@H]1O)O)O

>  <HBA2>
15

>  <HBD>
8

>  <logP>
-1.1566

>  <TPSA>
234.29

>  <MW>
610.561

$$$$
ZINC08680007
 OpenBabel02121623173D

 77 81  0  0  1  0  0  0  0  0999 V2000
    4.6862    3.7660    1.3630 C   0  0  0  0  0  0  0  0  0  0  0  0
    3.2701    3.1883    1.3194 C   0  0  1  0  0  0  0  0  0  0  0  0
    2.7276    3.4879    2.2160 H   0  0  0  0  0  0  0  0  0  0  0  0
    2.5410    3.7164    0.0811 C   0  0  1  0  0  0  0  0  0  0  0  0
    3.1049    3.4529   -0.8137 H   0  0  0  0  0  0  0  0  0  0  0  0
    1.1461    3.0871    0.0109 C   0  0  1  0  0  0  0  0  0  0  0  0
    0.6427    3.4145   -0.8988 H   0  0  0  0  0  0  0  0  0  0  0  0
    1.2864    1.5618   -0.0018 C   0  0  1  0  0  0  0  0  0  0  0  0
    1.8238    1.2528   -0.8984 H   0  0  0  0  0  0  0  0  0  0  0  0
    2.0640    1.1169    1.2396 C   0  0  1  0  0  0  0  0  0  0  0  0
    2.2037    0.0363    1.2131 H   0  0  0  0  0  0  0  0  0  0  0  0
    3.3389    1.7623    1.2581 O   0  0  0  0  0  0  0  0  0  0  0  0
    1.3320    1.4741    2.4138 O   0  0  0  0  0  0  0  0  0  0  0  0
    1.9173    1.0031    3.6293 C   0  0  0  0  0  0  0  0  0  0  0  0
    1.0543    1.4414    4.8143 C   0  0  2  0  0  0  0  0  0  0  0  0
    0.9215    2.5229    4.7868 H   0  0  0  0  0  0  0  0  0  0  0  0
    1.7436    1.0444    6.1223 C   0  0  1  0  0  0  0  0  0  0  0  0
    2.6977    1.5653    6.2039 H   0  0  0  0  0  0  0  0  0  0  0  0
    0.8462    1.4323    7.3015 C   0  0  1  0  0  0  0  0  0  0  0  0
    0.7165    2.5144    7.3222 H   0  0  0  0  0  0  0  0  0  0  0  0
   -0.5180    0.7559    7.1347 C   0  0  1  0  0  0  0  0  0  0  0  0
   -1.1815    1.0704    7.9403 H   0  0  0  0  0  0  0  0  0  0  0  0
   -1.1200    1.1640    5.7875 C   0  0  1  0  0  0  0  0  0  0  0  0
   -1.2813    2.2419    5.7730 H   0  0  0  0  0  0  0  0  0  0  0  0
   -0.2215    0.8024    4.7367 O   0  0  0  0  0  0  0  0  0  0  0  0
   -2.3675    0.4929    5.5999 O   0  0  0  0  0  0  0  0  0  0  0  0
   -3.0851    0.8237    4.4969 C   0  0  0  0  0  0  0  0  0  0  0  0
   -2.5909    1.7778    3.6157 C   0  0  0  0  0  0  0  0  0  0  0  0
   -3.3164    2.1226    2.4895 C   0  0  0  0  0  0  0  0  0  0  0  0
   -4.5530    1.5038    2.2472 C   0  0  0  0  0  0  0  0  0  0  0  0
   -5.0471    0.5338    3.1389 C   0  0  0  0  0  0  0  0  0  0  0  0
   -4.3032    0.2010    4.2572 C   0  0  0  0  0  0  0  0  0  0  0  0
   -6.2321   -0.0790    2.9085 O   0  0  0  0  0  0  0  0  0  0  0  0
   -7.1874    0.5707    2.0700 C   0  0  1  0  0  0  0  0  0  0  0  0
   -7.5522    1.4712    2.5640 H   0  0  0  0  0  0  0  0  0  0  0  0
   -6.5206    0.9502    0.7397 C   0  0  0  0  0  0  0  0  0  0  0  0
   -5.3495    1.8590    1.0676 C   0  0  0  0  0  0  0  0  0  0  0  0
   -5.0854    2.8296    0.3883 O   0  0  0  0  0  0  0  0  0  0  0  0
   -8.3420   -0.3611    1.8061 C   0  0  0  0  0  0  0  0  0  0  0  0
   -8.1169   -1.7191    1.6774 C   0  0  0  0  0  0  0  0  0  0  0  0
   -9.1735   -2.5786    1.4409 C   0  0  0  0  0  0  0  0  0  0  0  0
  -10.4601   -2.0782    1.3211 C   0  0  0  0  0  0  0  0  0  0  0  0
  -10.6859   -0.7107    1.4449 C   0  0  0  0  0  0  0  0  0  0  0  0
   -9.6231    0.1446    1.6876 C   0  0  0  0  0  0  0  0  0  0  0  0
  -11.9468   -0.2148    1.3277 O   0  0  0  0  0  0  0  0  0  0  0  0
  -11.4999   -2.9217    1.0825 O   0  0  0  0  0  0  0  0  0  0  0  0
  -11.1935   -4.3127    0.9670 C   0  0  0  0  0  0  0  0  0  0  0  0
   -2.8364    3.0513    1.6256 O   0  0  0  0  0  0  0  0  0  0  0  0
   -0.3568   -0.6634    7.1754 O   0  0  0  0  0  0  0  0  0  0  0  0
    1.4482    0.9995    8.5230 O   0  0  0  0  0  0  0  0  0  0  0  0
    1.9661   -0.3671    6.1356 O   0  0  0  0  0  0  0  0  0  0  0  0
   -0.0110    0.9628    0.0073 O   0  0  0  0  0  0  0  0  0  0  0  0
    0.3842    3.4876    1.1515 O   0  0  0  0  0  0  0  0  0  0  0  0
    2.4199    5.1376    0.1681 O   0  0  0  0  0  0  0  0  0  0  0  0
    5.2285    3.4667    0.4660 H   0  0  0  0  0  0  0  0  0  0  0  0
    4.6336    4.8537    1.4097 H   0  0  0  0  0  0  0  0  0  0  0  0
    5.2054    3.3891    2.2442 H   0  0  0  0  0  0  0  0  0  0  0  0
    1.9770   -0.0850    3.6061 H   0  0  0  0  0  0  0  0  0  0  0  0
    2.9190    1.4197    3.7356 H   0  0  0  0  0  0  0  0  0  0  0  0
   -1.6394    2.2503    3.8101 H   0  0  0  0  0  0  0  0  0  0  0  0
   -4.6728   -0.5425    4.9479 H   0  0  0  0  0  0  0  0  0  0  0  0
   -7.1833    1.4204    0.1569 H   0  0  0  0  0  0  0  0  0  0  0  0
   -6.1639    0.0529    0.2340 H   0  0  0  0  0  0  0  0  0  0  0  0
   -7.1140   -2.1097    1.7659 H   0  0  0  0  0  0  0  0  0  0  0  0
   -8.9956   -3.6395    1.3452 H   0  0  0  0  0  0  0  0  0  0  0  0
   -9.7956    1.2064    1.7838 H   0  0  0  0  0  0  0  0  0  0  0  0
  -12.1919    0.0268    0.4240 H   0  0  0  0  0  0  0  0  0  0  0  0
  -12.1096   -4.8721    0.7776 H   0  0  0  0  0  0  0  0  0  0  0  0
  -10.4980   -4.4643    0.1415 H   0  0  0  0  0  0  0  0  0  0  0  0
  -10.7391   -4.6628    1.8939 H   0  0  0  0  0  0  0  0  0  0  0  0
   -2.2895    2.6844    0.9176 H   0  0  0  0  0  0  0  0  0  0  0  0
   -1.1823   -1.1561    7.0712 H   0  0  0  0  0  0  0  0  0  0  0  0
    0.9293    1.2067    9.3123 H   0  0  0  0  0  0  0  0  0  0  0  0
    2.4006   -0.6892    6.9372 H   0  0  0  0  0  0  0  0  0  0  0  0
    0.0021   -0.0041    0.0020 H   0  0  0  0  0  0  0  0  0  0  0  0
   -0.5096    3.1193    1.1766 H   0  0  0  0  0  0  0  0  0  0  0  0
    3.2665    5.6020    0.2198 H   0  0  0  0  0  0  0  0  0  0  0  0
  1  2  1  0  0  0  0
  1 55  1  0  0  0  0
  1 56  1  0  0  0  0
  1 57  1  0  0  0  0
  2  3  1  1  0  0  0
  2 12  1  0  0  0  0
  2  4  1  0  0  0  0
  4  5  1  6  0  0  0
  4  6  1  0  0  0  0
  4 54  1  0  0  0  0
  6  7  1  6  0  0  0
  6  8  1  0  0  0  0
  6 53  1  0  0  0  0
  8  9  1  6  0  0  0
  8 10  1  0  0  0  0
  8 52  1  0  0  0  0
 10 11  1  6  0  0  0
 10 12  1  0  0  0  0
 10 13  1  0  0  0  0
 13 14  1  0  0  0  0
 14 15  1  0  0  0  0
 14 58  1  0  0  0  0
 14 59  1  0  0  0  0
 15 16  1  6  0  0  0
 15 25  1  0  0  0  0
 15 17  1  0  0  0  0
 17 18  1  1  0  0  0
 17 19  1  0  0  0  0
 17 51  1  0  0  0  0
 19 20  1  1  0  0  0
 19 21  1  0  0  0  0
 19 50  1  0  0  0  0
 21 22  1  1  0  0  0
 21 23  1  0  0  0  0
 21 49  1  0  0  0  0
 23 24  1  6  0  0  0
 23 25  1  0  0  0  0
 23 26  1  0  0  0  0
 26 27  1  0  0  0  0
 27 32  2  0  0  0  0
 27 28  1  0  0  0  0
 28 29  2  0  0  0  0
 28 60  1  0  0  0  0
 29 30  1  0  0  0  0
 29 48  1  0  0  0  0
 30 37  1  0  0  0  0
 30 31  2  0  0  0  0
 31 32  1  0  0  0  0
 31 33  1  0  0  0  0
 32 61  1  0  0  0  0
 33 34  1  0  0  0  0
 34 35  1  1  0  0  0
 34 36  1  0  0  0  0
 34 39  1  0  0  0  0
 36 37  1  0  0  0  0
 36 62  1  0  0  0  0
 36 63  1  0  0  0  0
 37 38  2  0  0  0  0
 39 44  2  0  0  0  0
 39 40  1  0  0  0  0
 40 41  2  0  0  0  0
 40 64  1  0  0  0  0
 41 42  1  0  0  0  0
 41 65  1  0  0  0  0
 42 43  2  0  0  0  0
 42 46  1  0  0  0  0
 43 44  1  0  0  0  0
 43 45  1  0  0  0  0
 44 66  1  0  0  0  0
 45 67  1  0  0  0  0
 46 47  1  0  0  0  0
 47 68  1  0  0  0  0
 47 69  1  0  0  0  0
 47 70  1  0  0  0  0
 48 71  1  0  0  0  0
 49 72  1  0  0  0  0
 50 73  1  0  0  0  0
 51 74  1  0  0  0  0
 52 75  1  0  0  0  0
 53 76  1  0  0  0  0
 54 77  1  0  0  0  0
M  END
>  <cansmi>
COc1ccc(cc1O)[C@@H]1CC(=O)c2c(O1)cc(cc2O)O[C@@H]1O[C@H](CO[C@@H]2O[C@@H](C)[C@@H]([C@@H]([C@@H]2O)O)O)[C@@H]([C@@H]([C@@H]1O)O)O

>  <HBA2>
15

>  <HBD>
8

>  <logP>
-1.1566

>  <TPSA>
234.29

>  <MW>
610.561

$$$$
ZINC13424750
 OpenBabel02121623173D

 55 57  0  0  1  0  0  0  0  0999 V2000
   -0.0505   -4.6348    1.9245 C   0  0  0  0  0  0  0  0  0  0  0  0
   -1.5529   -4.4576    1.6559 C   0  0  1  0  0  0  0  0  0  0  0  0
   -1.7717   -4.2540    0.1598 C   0  0  0  0  0  0  0  0  0  0  0  0
   -1.3062   -5.4947   -0.6029 C   0  0  0  0  0  0  0  0  0  0  0  0
   -2.0688   -6.7302   -0.1539 C   0  0  1  0  0  0  0  0  0  0  0  0
   -1.6031   -7.6125   -0.6257 H   0  0  0  0  0  0  0  0  0  0  0  0
   -2.0454   -6.9364    1.3551 C   0  0  1  0  0  0  0  0  0  0  0  0
   -2.3625   -5.6610    2.1317 C   0  0  2  0  0  0  0  0  0  0  0  0
   -2.1294   -5.8342    3.1944 H   0  0  0  0  0  0  0  0  0  0  0  0
   -3.8660   -5.3835    2.0194 C   0  0  0  0  0  0  0  0  0  0  0  0
   -4.2868   -4.1419    2.8129 C   0  0  0  0  0  0  0  0  0  0  0  0
   -3.4337   -2.9852    2.3407 C   0  0  0  0  0  0  0  0  0  0  0  0
   -3.9576   -1.8810    1.8843 C   0  0  0  0  0  0  0  0  0  0  0  0
   -1.9440   -3.1941    2.4365 C   0  0  2  0  0  0  0  0  0  0  0  0
   -1.6754   -3.3476    3.4901 H   0  0  0  0  0  0  0  0  0  0  0  0
   -1.1955   -1.9736    1.9116 C   0  0  0  0  0  0  0  0  0  0  0  0
   -1.4726   -0.7919    2.8047 C   0  0  0  0  0  0  0  0  0  0  0  0
   -0.4626   -0.1201    3.3521 C   0  0  0  0  0  0  0  0  0  0  0  0
    1.0152   -0.4071    3.1827 C   0  0  2  0  0  0  0  0  0  0  0  0
    1.2564   -1.4018    3.5577 H   0  0  0  0  0  0  0  0  0  0  0  0
    1.7063    0.6736    4.0306 C   0  0  0  0  0  0  0  0  0  0  0  0
    0.6498    1.4804    4.6109 O   0  0  0  0  0  0  0  0  0  0  0  0
   -0.5605    1.0461    4.2388 C   0  0  0  0  0  0  0  0  0  0  0  0
   -1.6075    1.5557    4.5867 O   0  0  0  0  0  0  0  0  0  0  0  0
    1.3947   -0.2853    1.8104 O   0  0  0  0  0  0  0  0  0  0  0  0
   -3.1059   -8.0171    1.6779 C   0  0  0  0  0  0  0  0  0  0  0  0
   -0.7071   -7.5566    1.7771 C   0  0  0  0  0  0  0  0  0  0  0  0
   -0.6035   -8.8768    1.2401 O   0  0  0  0  0  0  0  0  0  0  0  0
   -3.4205   -6.6646   -0.6187 O   0  0  0  0  0  0  0  0  0  0  0  0
    0.0998   -4.9415    2.9596 H   0  0  0  0  0  0  0  0  0  0  0  0
    0.3504   -5.3980    1.2576 H   0  0  0  0  0  0  0  0  0  0  0  0
    0.4642   -3.6905    1.7470 H   0  0  0  0  0  0  0  0  0  0  0  0
   -2.8304   -4.0819   -0.0388 H   0  0  0  0  0  0  0  0  0  0  0  0
   -1.1991   -3.3983   -0.2011 H   0  0  0  0  0  0  0  0  0  0  0  0
   -1.4990   -5.3310   -1.6740 H   0  0  0  0  0  0  0  0  0  0  0  0
   -0.2352   -5.6410   -0.4855 H   0  0  0  0  0  0  0  0  0  0  0  0
   -4.1347   -5.2375    0.9732 H   0  0  0  0  0  0  0  0  0  0  0  0
   -4.4531   -6.2080    2.4304 H   0  0  0  0  0  0  0  0  0  0  0  0
   -5.3375   -3.9254    2.6276 H   0  0  0  0  0  0  0  0  0  0  0  0
   -4.1230   -4.3114    3.8758 H   0  0  0  0  0  0  0  0  0  0  0  0
   -3.3178   -1.0744    1.5578 H   0  0  0  0  0  0  0  0  0  0  0  0
   -5.0310   -1.7735    1.8329 H   0  0  0  0  0  0  0  0  0  0  0  0
   -1.5302   -1.7500    0.8987 H   0  0  0  0  0  0  0  0  0  0  0  0
   -0.1251   -2.1797    1.9034 H   0  0  0  0  0  0  0  0  0  0  0  0
   -2.4910   -0.4901    3.0005 H   0  0  0  0  0  0  0  0  0  0  0  0
    2.2973    0.2083    4.8195 H   0  0  0  0  0  0  0  0  0  0  0  0
    2.3457    1.2912    3.4000 H   0  0  0  0  0  0  0  0  0  0  0  0
    2.3315   -0.4586    1.6445 H   0  0  0  0  0  0  0  0  0  0  0  0
   -2.8530   -8.9411    1.1580 H   0  0  0  0  0  0  0  0  0  0  0  0
   -3.1245   -8.1983    2.7526 H   0  0  0  0  0  0  0  0  0  0  0  0
   -4.0868   -7.6728    1.3505 H   0  0  0  0  0  0  0  0  0  0  0  0
    0.1121   -6.9451    1.3987 H   0  0  0  0  0  0  0  0  0  0  0  0
   -0.6544   -7.6017    2.8649 H   0  0  0  0  0  0  0  0  0  0  0  0
    0.2198   -9.3304    1.4674 H   0  0  0  0  0  0  0  0  0  0  0  0
   -3.5036   -6.6170   -1.5809 H   0  0  0  0  0  0  0  0  0  0  0  0
  1 30  1  0  0  0  0
  1 31  1  0  0  0  0
  1 32  1  0  0  0  0
  2  1  1  1  0  0  0
  2  8  1  0  0  0  0
  2 14  1  0  0  0  0
  2  3  1  0  0  0  0
  3  4  1  0  0  0  0
  3 33  1  0  0  0  0
  3 34  1  0  0  0  0
  4  5  1  0  0  0  0
  4 35  1  0  0  0  0
  4 36  1  0  0  0  0
  5  6  1  6  0  0  0
  5  7  1  0  0  0  0
  5 29  1  0  0  0  0
  7  8  1  0  0  0  0
  7 26  1  1  0  0  0
  7 27  1  0  0  0  0
  8  9  1  1  0  0  0
  8 10  1  0  0  0  0
 10 11  1  0  0  0  0
 10 37  1  0  0  0  0
 10 38  1  0  0  0  0
 11 12  1  0  0  0  0
 11 39  1  0  0  0  0
 11 40  1  0  0  0  0
 12 13  2  0  0  0  0
 12 14  1  0  0  0  0
 13 41  1  0  0  0  0
 13 42  1  0  0  0  0
 14 15  1  1  0  0  0
 14 16  1  0  0  0  0
 16 17  1  0  0  0  0
 16 43  1  0  0  0  0
 16 44  1  0  0  0  0
 17 18  2  0  0  0  0
 17 45  1  0  0  0  0
 18 23  1  0  0  0  0
 18 19  1  0  0  0  0
 19 20  1  1  0  0  0
 19 21  1  0  0  0  0
 19 25  1  0  0  0  0
 21 22  1  0  0  0  0
 21 46  1  0  0  0  0
 21 47  1  0  0  0  0
 22 23  1  0  0  0  0
 23 24  2  0  0  0  0
 25 48  1  0  0  0  0
 26 49  1  0  0  0  0
 26 50  1  0  0  0  0
 26 51  1  0  0  0  0
 27 28  1  0  0  0  0
 27 52  1  0  0  0  0
 27 53  1  0  0  0  0
 28 54  1  0  0  0  0
 29 55  1  0  0  0  0
M  END
>  <cansmi>
OC[C@]1(C)[C@@H](O)CC[C@@]2([C@H]1CCC(=C)[C@@H]2C/C=C/1\[C@@H](O)COC1=O)C

>  <HBA2>
5

>  <HBD>
3

>  <logP>
1.9626

>  <TPSA>
86.99

>  <MW>
350.449

$$$$
ZINC13424751
 OpenBabel02121623173D

 55 57  0  0  1  0  0  0  0  0999 V2000
    0.0140    4.7787   -0.1257 C   0  0  0  0  0  0  0  0  0  0  0  0
   -1.2492    3.9343    0.1020 C   0  0  1  0  0  0  0  0  0  0  0  0
   -1.8331    3.5349   -1.2498 C   0  0  0  0  0  0  0  0  0  0  0  0
   -0.8274    2.6705   -2.0106 C   0  0  0  0  0  0  0  0  0  0  0  0
   -0.4850    1.4137   -1.2278 C   0  0  1  0  0  0  0  0  0  0  0  0
    0.3421    0.8993   -1.7472 H   0  0  0  0  0  0  0  0  0  0  0  0
   -0.0389    1.6976    0.2007 C   0  0  2  0  0  0  0  0  0  0  0  0
   -0.9567    2.6809    0.9225 C   0  0  2  0  0  0  0  0  0  0  0  0
   -0.4667    2.9896    1.8598 H   0  0  0  0  0  0  0  0  0  0  0  0
   -2.2564    1.9553    1.2885 C   0  0  0  0  0  0  0  0  0  0  0  0
   -3.2243    2.8556    2.0635 C   0  0  0  0  0  0  0  0  0  0  0  0
   -3.4539    4.1013    1.2363 C   0  0  0  0  0  0  0  0  0  0  0  0
   -4.6495    4.4859    0.8829 C   0  0  0  0  0  0  0  0  0  0  0  0
   -2.2126    4.8656    0.8527 C   0  0  2  0  0  0  0  0  0  0  0  0
   -1.7117    5.2088    1.7675 H   0  0  0  0  0  0  0  0  0  0  0  0
   -2.5710    6.0807    0.0038 C   0  0  0  0  0  0  0  0  0  0  0  0
   -3.3798    7.0487    0.8283 C   0  0  0  0  0  0  0  0  0  0  0  0
   -2.9817    8.3126    0.9513 C   0  0  0  0  0  0  0  0  0  0  0  0
   -1.7488    8.9394    0.3333 C   0  0  2  0  0  0  0  0  0  0  0  0
   -0.8470    8.4461    0.6960 H   0  0  0  0  0  0  0  0  0  0  0  0
   -1.7942   10.4015    0.8074 C   0  0  0  0  0  0  0  0  0  0  0  0
   -2.9837   10.5322    1.6271 O   0  0  0  0  0  0  0  0  0  0  0  0
   -3.6541    9.3764    1.7076 C   0  0  0  0  0  0  0  0  0  0  0  0
   -4.6864    9.2257    2.3310 O   0  0  0  0  0  0  0  0  0  0  0  0
   -1.8149    8.8733   -1.0927 O   0  0  0  0  0  0  0  0  0  0  0  0
    1.4255    2.1549    0.2097 C   0  0  0  0  0  0  0  0  0  0  0  0
   -0.0391    0.3429    0.9497 C   0  0  0  0  0  0  0  0  0  0  0  0
    0.8068   -0.5814    0.2626 O   0  0  0  0  0  0  0  0  0  0  0  0
   -1.6034    0.5214   -1.2242 O   0  0  0  0  0  0  0  0  0  0  0  0
    0.6823    4.2555   -0.8097 H   0  0  0  0  0  0  0  0  0  0  0  0
   -0.2648    5.7410   -0.5551 H   0  0  0  0  0  0  0  0  0  0  0  0
    0.5206    4.9386    0.8260 H   0  0  0  0  0  0  0  0  0  0  0  0
   -2.7562    2.9727   -1.1019 H   0  0  0  0  0  0  0  0  0  0  0  0
   -2.0479    4.4178   -1.8537 H   0  0  0  0  0  0  0  0  0  0  0  0
   -1.2831    2.3767   -2.9683 H   0  0  0  0  0  0  0  0  0  0  0  0
    0.0723    3.2364   -2.2404 H   0  0  0  0  0  0  0  0  0  0  0  0
   -2.7512    1.6092    0.3810 H   0  0  0  0  0  0  0  0  0  0  0  0
   -2.0630    1.1008    1.9414 H   0  0  0  0  0  0  0  0  0  0  0  0
   -4.1683    2.3353    2.2168 H   0  0  0  0  0  0  0  0  0  0  0  0
   -2.7873    3.1255    3.0234 H   0  0  0  0  0  0  0  0  0  0  0  0
   -5.5125    3.9092    1.1814 H   0  0  0  0  0  0  0  0  0  0  0  0
   -4.7762    5.3809    0.2919 H   0  0  0  0  0  0  0  0  0  0  0  0
   -1.6575    6.5683   -0.3366 H   0  0  0  0  0  0  0  0  0  0  0  0
   -3.1556    5.7615   -0.8590 H   0  0  0  0  0  0  0  0  0  0  0  0
   -4.2826    6.7166    1.3195 H   0  0  0  0  0  0  0  0  0  0  0  0
   -0.9067   10.6308    1.3972 H   0  0  0  0  0  0  0  0  0  0  0  0
   -1.8563   11.0708   -0.0507 H   0  0  0  0  0  0  0  0  0  0  0  0
   -1.0502    9.2606   -1.5403 H   0  0  0  0  0  0  0  0  0  0  0  0
    2.0610    1.3458   -0.1503 H   0  0  0  0  0  0  0  0  0  0  0  0
    1.5391    3.0227   -0.4401 H   0  0  0  0  0  0  0  0  0  0  0  0
    1.7167    2.4212    1.2257 H   0  0  0  0  0  0  0  0  0  0  0  0
    0.3310    0.4888    1.9646 H   0  0  0  0  0  0  0  0  0  0  0  0
   -1.0544   -0.0519    0.9865 H   0  0  0  0  0  0  0  0  0  0  0  0
    0.8546   -1.4538    0.6770 H   0  0  0  0  0  0  0  0  0  0  0  0
   -1.9342    0.3019   -2.1059 H   0  0  0  0  0  0  0  0  0  0  0  0
  1 30  1  0  0  0  0
  1 31  1  0  0  0  0
  1 32  1  0  0  0  0
  2  1  1  6  0  0  0
  2  8  1  0  0  0  0
  2 14  1  0  0  0  0
  2  3  1  0  0  0  0
  3  4  1  0  0  0  0
  3 33  1  0  0  0  0
  3 34  1  0  0  0  0
  4  5  1  0  0  0  0
  4 35  1  0  0  0  0
  4 36  1  0  0  0  0
  5  6  1  6  0  0  0
  5  7  1  0  0  0  0
  5 29  1  0  0  0  0
  7  8  1  0  0  0  0
  7 26  1  6  0  0  0
  7 27  1  0  0  0  0
  8  9  1  1  0  0  0
  8 10  1  0  0  0  0
 10 11  1  0  0  0  0
 10 37  1  0  0  0  0
 10 38  1  0  0  0  0
 11 12  1  0  0  0  0
 11 39  1  0  0  0  0
 11 40  1  0  0  0  0
 12 13  2  0  0  0  0
 12 14  1  0  0  0  0
 13 41  1  0  0  0  0
 13 42  1  0  0  0  0
 14 15  1  1  0  0  0
 14 16  1  0  0  0  0
 16 17  1  0  0  0  0
 16 43  1  0  0  0  0
 16 44  1  0  0  0  0
 17 18  2  0  0  0  0
 17 45  1  0  0  0  0
 18 23  1  0  0  0  0
 18 19  1  0  0  0  0
 19 20  1  1  0  0  0
 19 21  1  0  0  0  0
 19 25  1  0  0  0  0
 21 22  1  0  0  0  0
 21 46  1  0  0  0  0
 21 47  1  0  0  0  0
 22 23  1  0  0  0  0
 23 24  2  0  0  0  0
 25 48  1  0  0  0  0
 26 49  1  0  0  0  0
 26 50  1  0  0  0  0
 26 51  1  0  0  0  0
 27 28  1  0  0  0  0
 27 52  1  0  0  0  0
 27 53  1  0  0  0  0
 28 54  1  0  0  0  0
 29 55  1  0  0  0  0
M  END
>  <cansmi>
OC[C@@]1(C)[C@@H](O)CC[C@@]2([C@H]1CCC(=C)[C@@H]2C/C=C/1\[C@@H](O)COC1=O)C

>  <HBA2>
5

>  <HBD>
3

>  <logP>
1.9626

>  <TPSA>
86.99

>  <MW>
350.449

$$$$
ZINC13424752
 OpenBabel02121623173D

 55 57  0  0  1  0  0  0  0  0999 V2000
   -2.0501    3.2463    2.2436 C   0  0  0  0  0  0  0  0  0  0  0  0
   -1.1174    2.7516    1.1269 C   0  0  1  0  0  0  0  0  0  0  0  0
    0.2655    3.3646    1.3242 C   0  0  0  0  0  0  0  0  0  0  0  0
    0.8872    2.8482    2.6233 C   0  0  0  0  0  0  0  0  0  0  0  0
    1.0194    1.3315    2.5777 C   0  0  2  0  0  0  0  0  0  0  0  0
    1.7111    1.0539    1.7758 H   0  0  0  0  0  0  0  0  0  0  0  0
   -0.3265    0.6530    2.3327 C   0  0  1  0  0  0  0  0  0  0  0  0
   -1.0172    1.2294    1.0965 C   0  0  2  0  0  0  0  0  0  0  0  0
   -2.0313    0.8111    1.0331 H   0  0  0  0  0  0  0  0  0  0  0  0
   -0.2285    0.7622   -0.1340 C   0  0  0  0  0  0  0  0  0  0  0  0
   -0.8390    1.2615   -1.4453 C   0  0  0  0  0  0  0  0  0  0  0  0
   -0.9745    2.7651   -1.3537 C   0  0  0  0  0  0  0  0  0  0  0  0
   -0.4524    3.5616   -2.2458 C   0  0  0  0  0  0  0  0  0  0  0  0
   -1.7537    3.2782   -0.1699 C   0  0  2  0  0  0  0  0  0  0  0  0
   -2.7802    2.8946   -0.2259 H   0  0  0  0  0  0  0  0  0  0  0  0
   -1.7950    4.8027   -0.1745 C   0  0  0  0  0  0  0  0  0  0  0  0
   -2.5645    5.2808   -1.3788 C   0  0  0  0  0  0  0  0  0  0  0  0
   -3.6029    6.0985   -1.2234 C   0  0  0  0  0  0  0  0  0  0  0  0
   -4.1456    6.6370    0.0845 C   0  0  2  0  0  0  0  0  0  0  0  0
   -4.4831    5.8205    0.7229 H   0  0  0  0  0  0  0  0  0  0  0  0
   -5.3317    7.5200   -0.3373 C   0  0  0  0  0  0  0  0  0  0  0  0
   -5.4109    7.4406   -1.7835 O   0  0  0  0  0  0  0  0  0  0  0  0
   -4.4528    6.6518   -2.2852 C   0  0  0  0  0  0  0  0  0  0  0  0
   -4.3049    6.4230   -3.4696 O   0  0  0  0  0  0  0  0  0  0  0  0
   -3.1546    7.4200    0.7531 O   0  0  0  0  0  0  0  0  0  0  0  0
   -0.0438   -0.8516    2.1138 C   0  0  0  0  0  0  0  0  0  0  0  0
   -1.1932    0.7231    3.5911 C   0  0  0  0  0  0  0  0  0  0  0  0
   -2.4948    0.2088    3.3023 O   0  0  0  0  0  0  0  0  0  0  0  0
    1.5600    0.8661    3.8205 O   0  0  0  0  0  0  0  0  0  0  0  0
   -3.0003    2.7155    2.1851 H   0  0  0  0  0  0  0  0  0  0  0  0
   -1.5880    3.0584    3.2127 H   0  0  0  0  0  0  0  0  0  0  0  0
   -2.2235    4.3159    2.1249 H   0  0  0  0  0  0  0  0  0  0  0  0
    0.9110    3.0988    0.4857 H   0  0  0  0  0  0  0  0  0  0  0  0
    0.1979    4.4520    1.3903 H   0  0  0  0  0  0  0  0  0  0  0  0
    1.8889    3.2871    2.7263 H   0  0  0  0  0  0  0  0  0  0  0  0
    0.2984    3.1573    3.4817 H   0  0  0  0  0  0  0  0  0  0  0  0
   -0.2261   -0.3294   -0.2051 H   0  0  0  0  0  0  0  0  0  0  0  0
    0.8008    1.1148   -0.0589 H   0  0  0  0  0  0  0  0  0  0  0  0
   -0.1878    1.0008   -2.2788 H   0  0  0  0  0  0  0  0  0  0  0  0
   -1.8208    0.8118   -1.5902 H   0  0  0  0  0  0  0  0  0  0  0  0
    0.0961    3.1514   -3.0808 H   0  0  0  0  0  0  0  0  0  0  0  0
   -0.5687    4.6309   -2.1490 H   0  0  0  0  0  0  0  0  0  0  0  0
   -2.2847    5.1557    0.7331 H   0  0  0  0  0  0  0  0  0  0  0  0
   -0.7783    5.1936   -0.2144 H   0  0  0  0  0  0  0  0  0  0  0  0
   -2.2733    4.9598   -2.3681 H   0  0  0  0  0  0  0  0  0  0  0  0
   -5.1627    8.5515   -0.0283 H   0  0  0  0  0  0  0  0  0  0  0  0
   -6.2520    7.1427    0.1086 H   0  0  0  0  0  0  0  0  0  0  0  0
   -3.4488    7.7897    1.5968 H   0  0  0  0  0  0  0  0  0  0  0  0
    0.4385   -1.2634    3.0004 H   0  0  0  0  0  0  0  0  0  0  0  0
   -0.9828   -1.3754    1.9346 H   0  0  0  0  0  0  0  0  0  0  0  0
    0.6121   -0.9765    1.2523 H   0  0  0  0  0  0  0  0  0  0  0  0
   -0.7348    0.1287    4.3815 H   0  0  0  0  0  0  0  0  0  0  0  0
   -1.2763    1.7597    3.9177 H   0  0  0  0  0  0  0  0  0  0  0  0
   -3.0994    0.2226    4.0568 H   0  0  0  0  0  0  0  0  0  0  0  0
    2.4339    1.2244    4.0280 H   0  0  0  0  0  0  0  0  0  0  0  0
  1 30  1  0  0  0  0
  1 31  1  0  0  0  0
  1 32  1  0  0  0  0
  2  1  1  1  0  0  0
  2  8  1  0  0  0  0
  2 14  1  0  0  0  0
  2  3  1  0  0  0  0
  3  4  1  0  0  0  0
  3 33  1  0  0  0  0
  3 34  1  0  0  0  0
  4  5  1  0  0  0  0
  4 35  1  0  0  0  0
  4 36  1  0  0  0  0
  5  6  1  6  0  0  0
  5  7  1  0  0  0  0
  5 29  1  0  0  0  0
  7  8  1  0  0  0  0
  7 26  1  6  0  0  0
  7 27  1  0  0  0  0
  8  9  1  6  0  0  0
  8 10  1  0  0  0  0
 10 11  1  0  0  0  0
 10 37  1  0  0  0  0
 10 38  1  0  0  0  0
 11 12  1  0  0  0  0
 11 39  1  0  0  0  0
 11 40  1  0  0  0  0
 12 13  2  0  0  0  0
 12 14  1  0  0  0  0
 13 41  1  0  0  0  0
 13 42  1  0  0  0  0
 14 15  1  6  0  0  0
 14 16  1  0  0  0  0
 16 17  1  0  0  0  0
 16 43  1  0  0  0  0
 16 44  1  0  0  0  0
 17 18  2  0  0  0  0
 17 45  1  0  0  0  0
 18 23  1  0  0  0  0
 18 19  1  0  0  0  0
 19 20  1  1  0  0  0
 19 21  1  0  0  0  0
 19 25  1  0  0  0  0
 21 22  1  0  0  0  0
 21 46  1  0  0  0  0
 21 47  1  0  0  0  0
 22 23  1  0  0  0  0
 23 24  2  0  0  0  0
 25 48  1  0  0  0  0
 26 49  1  0  0  0  0
 26 50  1  0  0  0  0
 26 51  1  0  0  0  0
 27 28  1  0  0  0  0
 27 52  1  0  0  0  0
 27 53  1  0  0  0  0
 28 54  1  0  0  0  0
 29 55  1  0  0  0  0
M  END
>  <cansmi>
OC[C@]1(C)[C@H](O)CC[C@@]2([C@H]1CCC(=C)[C@@H]2C/C=C/1\[C@@H](O)COC1=O)C

>  <HBA2>
5

>  <HBD>
3

>  <logP>
1.9626

>  <TPSA>
86.99

>  <MW>
350.449

$$$$
ZINC13424753
 OpenBabel02121623173D

 55 57  0  0  1  0  0  0  0  0999 V2000
    2.2747    3.0017    2.6915 C   0  0  0  0  0  0  0  0  0  0  0  0
    3.0125    2.7125    1.3752 C   0  0  1  0  0  0  0  0  0  0  0  0
    2.6452    1.3125    0.8943 C   0  0  0  0  0  0  0  0  0  0  0  0
    1.1578    1.2528    0.5410 C   0  0  0  0  0  0  0  0  0  0  0  0
    0.8355    2.2558   -0.5590 C   0  0  2  0  0  0  0  0  0  0  0  0
    1.3751    1.9773   -1.4699 H   0  0  0  0  0  0  0  0  0  0  0  0
    1.2268    3.6775   -0.1622 C   0  0  2  0  0  0  0  0  0  0  0  0
    2.6840    3.7402    0.2959 C   0  0  2  0  0  0  0  0  0  0  0  0
    2.8857    4.7442    0.6926 H   0  0  0  0  0  0  0  0  0  0  0  0
    3.5676    3.5267   -0.9406 C   0  0  0  0  0  0  0  0  0  0  0  0
    5.0609    3.5892   -0.6127 C   0  0  0  0  0  0  0  0  0  0  0  0
    5.3356    2.6030    0.5009 C   0  0  0  0  0  0  0  0  0  0  0  0
    6.2382    1.6675    0.3881 C   0  0  0  0  0  0  0  0  0  0  0  0
    4.5031    2.7773    1.7447 C   0  0  2  0  0  0  0  0  0  0  0  0
    4.7053    3.7670    2.1730 H   0  0  0  0  0  0  0  0  0  0  0  0
    4.8523    1.7114    2.7783 C   0  0  0  0  0  0  0  0  0  0  0  0
    6.2866    1.8800    3.2090 C   0  0  0  0  0  0  0  0  0  0  0  0
    6.5820    2.0187    4.4992 C   0  0  0  0  0  0  0  0  0  0  0  0
    5.6049    2.0354    5.6568 C   0  0  2  0  0  0  0  0  0  0  0  0
    4.9098    2.8692    5.5577 H   0  0  0  0  0  0  0  0  0  0  0  0
    6.4960    2.2179    6.8966 C   0  0  0  0  0  0  0  0  0  0  0  0
    7.8613    2.3019    6.4141 O   0  0  0  0  0  0  0  0  0  0  0  0
    7.9188    2.1921    5.0813 C   0  0  0  0  0  0  0  0  0  0  0  0
    8.9472    2.2309    4.4348 O   0  0  0  0  0  0  0  0  0  0  0  0
    4.8957    0.7970    5.7311 O   0  0  0  0  0  0  0  0  0  0  0  0
    0.2474    4.2276    0.8761 C   0  0  0  0  0  0  0  0  0  0  0  0
    1.0390    4.5666   -1.4136 C   0  0  0  0  0  0  0  0  0  0  0  0
   -0.3266    4.5179   -1.8319 O   0  0  0  0  0  0  0  0  0  0  0  0
   -0.5694    2.2169   -0.8378 O   0  0  0  0  0  0  0  0  0  0  0  0
    2.6757    2.3651    3.4802 H   0  0  0  0  0  0  0  0  0  0  0  0
    2.4134    4.0481    2.9635 H   0  0  0  0  0  0  0  0  0  0  0  0
    1.2116    2.7971    2.5647 H   0  0  0  0  0  0  0  0  0  0  0  0
    2.8377    0.5754    1.6760 H   0  0  0  0  0  0  0  0  0  0  0  0
    3.2350    1.0574    0.0125 H   0  0  0  0  0  0  0  0  0  0  0  0
    0.5456    1.4350    1.4192 H   0  0  0  0  0  0  0  0  0  0  0  0
    0.9292    0.2423    0.1754 H   0  0  0  0  0  0  0  0  0  0  0  0
    3.3940    4.3094   -1.6843 H   0  0  0  0  0  0  0  0  0  0  0  0
    3.3370    2.5579   -1.3857 H   0  0  0  0  0  0  0  0  0  0  0  0
    5.3259    4.5945   -0.2868 H   0  0  0  0  0  0  0  0  0  0  0  0
    5.6441    3.3215   -1.4932 H   0  0  0  0  0  0  0  0  0  0  0  0
    6.4106    0.9823    1.2049 H   0  0  0  0  0  0  0  0  0  0  0  0
    6.8128    1.5784   -0.5220 H   0  0  0  0  0  0  0  0  0  0  0  0
    4.1983    1.8166    3.6439 H   0  0  0  0  0  0  0  0  0  0  0  0
    4.7185    0.7224    2.3399 H   0  0  0  0  0  0  0  0  0  0  0  0
    7.0747    1.8884    2.4707 H   0  0  0  0  0  0  0  0  0  0  0  0
    6.3885    1.3656    7.5675 H   0  0  0  0  0  0  0  0  0  0  0  0
    6.2257    3.1377    7.4152 H   0  0  0  0  0  0  0  0  0  0  0  0
    4.2561    0.7529    6.4550 H   0  0  0  0  0  0  0  0  0  0  0  0
    0.1282    3.5039    1.6824 H   0  0  0  0  0  0  0  0  0  0  0  0
    0.6346    5.1625    1.2814 H   0  0  0  0  0  0  0  0  0  0  0  0
   -0.7185    4.4085    0.4045 H   0  0  0  0  0  0  0  0  0  0  0  0
    1.3087    5.5948   -1.1726 H   0  0  0  0  0  0  0  0  0  0  0  0
    1.6784    4.2021   -2.2176 H   0  0  0  0  0  0  0  0  0  0  0  0
   -0.5178    5.0539   -2.6137 H   0  0  0  0  0  0  0  0  0  0  0  0
   -0.8909    1.3490   -1.1181 H   0  0  0  0  0  0  0  0  0  0  0  0
  1 30  1  0  0  0  0
  1 31  1  0  0  0  0
  1 32  1  0  0  0  0
  2  1  1  1  0  0  0
  2  8  1  0  0  0  0
  2 14  1  0  0  0  0
  2  3  1  0  0  0  0
  3  4  1  0  0  0  0
  3 33  1  0  0  0  0
  3 34  1  0  0  0  0
  4  5  1  0  0  0  0
  4 35  1  0  0  0  0
  4 36  1  0  0  0  0
  5  6  1  6  0  0  0
  5  7  1  0  0  0  0
  5 29  1  0  0  0  0
  7  8  1  0  0  0  0
  7 26  1  1  0  0  0
  7 27  1  0  0  0  0
  8  9  1  1  0  0  0
  8 10  1  0  0  0  0
 10 11  1  0  0  0  0
 10 37  1  0  0  0  0
 10 38  1  0  0  0  0
 11 12  1  0  0  0  0
 11 39  1  0  0  0  0
 11 40  1  0  0  0  0
 12 13  2  0  0  0  0
 12 14  1  0  0  0  0
 13 41  1  0  0  0  0
 13 42  1  0  0  0  0
 14 15  1  1  0  0  0
 14 16  1  0  0  0  0
 16 17  1  0  0  0  0
 16 43  1  0  0  0  0
 16 44  1  0  0  0  0
 17 18  2  0  0  0  0
 17 45  1  0  0  0  0
 18 23  1  0  0  0  0
 18 19  1  0  0  0  0
 19 20  1  6  0  0  0
 19 21  1  0  0  0  0
 19 25  1  0  0  0  0
 21 22  1  0  0  0  0
 21 46  1  0  0  0  0
 21 47  1  0  0  0  0
 22 23  1  0  0  0  0
 23 24  2  0  0  0  0
 25 48  1  0  0  0  0
 26 49  1  0  0  0  0
 26 50  1  0  0  0  0
 26 51  1  0  0  0  0
 27 28  1  0  0  0  0
 27 52  1  0  0  0  0
 27 53  1  0  0  0  0
 28 54  1  0  0  0  0
 29 55  1  0  0  0  0
M  END
>  <cansmi>
OC[C@@]1(C)[C@H](O)CC[C@@]2([C@H]1CCC(=C)[C@@H]2C/C=C/1\[C@@H](O)COC1=O)C

>  <HBA2>
5

>  <HBD>
3

>  <logP>
1.9626

>  <TPSA>
86.99

>  <MW>
350.449

$$$$
ZINC13424754
 OpenBabel02121623173D

 31 31  0  0  0  0  0  0  0  0999 V2000
    0.7222    2.1848    7.0322 C   0  0  0  0  0  0  0  0  0  0  0  0
    1.4666    0.8803    7.1553 C   0  0  0  0  0  0  0  0  0  0  0  0
    1.5211    0.0479    6.1238 C   0  0  0  0  0  0  0  0  0  0  0  0
    0.7277    0.3241    4.9093 C   0  0  0  0  0  0  0  0  0  0  0  0
   -0.6256    0.6511    5.0163 C   0  0  0  0  0  0  0  0  0  0  0  0
   -1.3642    0.9092    3.8774 C   0  0  0  0  0  0  0  0  0  0  0  0
   -0.7607    0.8441    2.6233 C   0  0  0  0  0  0  0  0  0  0  0  0
    0.5808    0.5145    2.5114 C   0  0  0  0  0  0  0  0  0  0  0  0
    1.3300    0.2593    3.6476 C   0  0  0  0  0  0  0  0  0  0  0  0
    2.6466   -0.0589    3.5374 O   0  0  0  0  0  0  0  0  0  0  0  0
    3.1944   -0.1064    2.2184 C   0  0  0  0  0  0  0  0  0  0  0  0
   -1.4913    1.0993    1.5056 O   0  0  0  0  0  0  0  0  0  0  0  0
   -0.8103    1.0150    0.2521 C   0  0  0  0  0  0  0  0  0  0  0  0
   -2.6830    1.2279    3.9809 O   0  0  0  0  0  0  0  0  0  0  0  0
   -3.2373    1.2767    5.2971 C   0  0  0  0  0  0  0  0  0  0  0  0
    0.8657    2.7720    7.9393 H   0  0  0  0  0  0  0  0  0  0  0  0
    1.1027    2.7409    6.1754 H   0  0  0  0  0  0  0  0  0  0  0  0
   -0.3403    1.9851    6.8930 H   0  0  0  0  0  0  0  0  0  0  0  0
    1.9557    0.6231    8.0832 H   0  0  0  0  0  0  0  0  0  0  0  0
    2.1458   -0.8318    6.1723 H   0  0  0  0  0  0  0  0  0  0  0  0
   -1.0945    0.7019    5.9879 H   0  0  0  0  0  0  0  0  0  0  0  0
    1.0434    0.4608    1.5370 H   0  0  0  0  0  0  0  0  0  0  0  0
    4.2504   -0.3711    2.2728 H   0  0  0  0  0  0  0  0  0  0  0  0
    2.6622   -0.8543    1.6306 H   0  0  0  0  0  0  0  0  0  0  0  0
    3.0885    0.8700    1.7457 H   0  0  0  0  0  0  0  0  0  0  0  0
   -0.4154    0.0077    0.1202 H   0  0  0  0  0  0  0  0  0  0  0  0
    0.0104    1.7321    0.2356 H   0  0  0  0  0  0  0  0  0  0  0  0
   -1.5066    1.2410   -0.5555 H   0  0  0  0  0  0  0  0  0  0  0  0
   -2.7080    2.0252    5.8867 H   0  0  0  0  0  0  0  0  0  0  0  0
   -4.2930    1.5414    5.2371 H   0  0  0  0  0  0  0  0  0  0  0  0
   -3.1338    0.3008    5.7713 H   0  0  0  0  0  0  0  0  0  0  0  0
  1  2  1  0  0  0  0
  1 16  1  0  0  0  0
  1 17  1  0  0  0  0
  1 18  1  0  0  0  0
  2  3  2  0  0  0  0
  2 19  1  0  0  0  0
  3  4  1  0  0  0  0
  3 20  1  0  0  0  0
  4  9  2  0  0  0  0
  4  5  1  0  0  0  0
  5  6  2  0  0  0  0
  5 21  1  0  0  0  0
  6  7  1  0  0  0  0
  6 14  1  0  0  0  0
  7  8  2  0  0  0  0
  7 12  1  0  0  0  0
  8  9  1  0  0  0  0
  8 22  1  0  0  0  0
  9 10  1  0  0  0  0
 10 11  1  0  0  0  0
 11 23  1  0  0  0  0
 11 24  1  0  0  0  0
 11 25  1  0  0  0  0
 12 13  1  0  0  0  0
 13 26  1  0  0  0  0
 13 27  1  0  0  0  0
 13 28  1  0  0  0  0
 14 15  1  0  0  0  0
 15 29  1  0  0  0  0
 15 30  1  0  0  0  0
 15 31  1  0  0  0  0
M  END
>  <cansmi>
C/C=C\c1cc(OC)c(cc1OC)OC

>  <HBA2>
3

>  <HBD>
0

>  <logP>
2.7455

>  <TPSA>
27.69

>  <MW>
208.254

$$$$
ZINC13424755
 OpenBabel02121623173D

 68 72  0  0  1  0  0  0  0  0999 V2000
    5.8011    2.3010    8.7822 C   0  0  0  0  0  0  0  0  0  0  0  0
    5.2715    1.7559    7.4544 C   0  0  1  0  0  0  0  0  0  0  0  0
    5.9315    0.9858    7.0551 H   0  0  0  0  0  0  0  0  0  0  0  0
    3.8552    1.2442    7.5974 C   0  0  2  0  0  0  0  0  0  0  0  0
    3.2406    2.0296    8.0372 H   0  0  0  0  0  0  0  0  0  0  0  0
    3.3478   -0.1012    8.0769 C   0  0  0  0  0  0  0  0  0  0  0  0
    1.8966    0.0043    7.4163 C   0  0  0  0  0  0  0  0  0  0  0  0
    2.3169    0.2806    5.9722 C   0  0  2  0  0  0  0  0  0  0  0  0
    2.6824   -0.6540    5.5467 H   0  0  0  0  0  0  0  0  0  0  0  0
    3.5103    1.2088    6.0982 C   0  0  2  0  0  0  0  0  0  0  0  0
    4.4449    0.6148    5.0438 C   0  0  0  0  0  0  0  0  0  0  0  0
    3.7341    1.0425    3.7314 C   0  0  0  0  0  0  0  0  0  0  0  0
    2.2558    0.6829    3.6280 C   0  0  1  0  0  0  0  0  0  0  0  0
    2.1954   -0.3812    3.4000 H   0  0  0  0  0  0  0  0  0  0  0  0
    1.4446    0.9540    4.9301 C   0  0  1  0  0  0  0  0  0  0  0  0
    1.3056    2.0173    5.1258 H   0  0  0  0  0  0  0  0  0  0  0  0
    0.1145    0.2121    4.7747 C   0  0  0  0  0  0  0  0  0  0  0  0
   -0.5303    0.6150    3.4820 C   0  0  0  0  0  0  0  0  0  0  0  0
    0.0955    1.1710    2.4865 C   0  0  0  0  0  0  0  0  0  0  0  0
    1.5746    1.4584    2.4951 C   0  0  2  0  0  0  0  0  0  0  0  0
    2.1940    1.0095    1.1673 C   0  0  0  0  0  0  0  0  0  0  0  0
    1.4226    1.6179   -0.0028 C   0  0  0  0  0  0  0  0  0  0  0  0
   -0.0127    1.0858    0.0080 C   0  0  1  0  0  0  0  0  0  0  0  0
    0.0021   -0.0041    0.0020 H   0  0  0  0  0  0  0  0  0  0  0  0
   -0.7166    1.5817    1.2730 C   0  0  0  0  0  0  0  0  0  0  0  0
   -2.0733    0.9916   -1.2599 C   0  0  0  0  0  0  0  0  0  0  0  0
   -0.7877    3.0422   -1.1897 C   0  0  0  0  0  0  0  0  0  0  0  0
    1.8032    2.9592    2.6851 C   0  0  0  0  0  0  0  0  0  0  0  0
    3.6560    2.6969    5.8875 C   0  0  0  0  0  0  0  0  0  0  0  0
    5.2116    4.1849    7.0824 C   0  0  0  0  0  0  0  0  0  0  0  0
    5.7925    1.5079    9.5299 H   0  0  0  0  0  0  0  0  0  0  0  0
    6.8210    2.6610    8.6463 H   0  0  0  0  0  0  0  0  0  0  0  0
    5.1674    3.1224    9.1165 H   0  0  0  0  0  0  0  0  0  0  0  0
    3.2973   -0.1532    9.1645 H   0  0  0  0  0  0  0  0  0  0  0  0
    3.9257   -0.9262    7.6605 H   0  0  0  0  0  0  0  0  0  0  0  0
    1.3269    0.8349    7.8330 H   0  0  0  0  0  0  0  0  0  0  0  0
    1.3494   -0.9345    7.5010 H   0  0  0  0  0  0  0  0  0  0  0  0
    5.4404    1.0537    5.1110 H   0  0  0  0  0  0  0  0  0  0  0  0
    4.4910   -0.4709    5.1284 H   0  0  0  0  0  0  0  0  0  0  0  0
    3.8167    2.1249    3.6338 H   0  0  0  0  0  0  0  0  0  0  0  0
    4.2575    0.5833    2.8927 H   0  0  0  0  0  0  0  0  0  0  0  0
   -0.5439    0.4679    5.6048 H   0  0  0  0  0  0  0  0  0  0  0  0
    0.2957   -0.8627    4.7714 H   0  0  0  0  0  0  0  0  0  0  0  0
   -1.5886    0.4308    3.3699 H   0  0  0  0  0  0  0  0  0  0  0  0
    2.1555   -0.0777    1.0996 H   0  0  0  0  0  0  0  0  0  0  0  0
    3.2330    1.3362    1.1244 H   0  0  0  0  0  0  0  0  0  0  0  0
    1.9060    1.3422   -0.9401 H   0  0  0  0  0  0  0  0  0  0  0  0
    1.4092    2.7034    0.0951 H   0  0  0  0  0  0  0  0  0  0  0  0
   -0.8006    2.6680    1.2413 H   0  0  0  0  0  0  0  0  0  0  0  0
   -1.7112    1.1398    1.3336 H   0  0  0  0  0  0  0  0  0  0  0  0
   -2.6423    1.2662   -0.3716 H   0  0  0  0  0  0  0  0  0  0  0  0
   -2.5803    1.3702   -2.1475 H   0  0  0  0  0  0  0  0  0  0  0  0
   -1.9961   -0.0939   -1.3208 H   0  0  0  0  0  0  0  0  0  0  0  0
    0.2241    3.4474   -1.1995 H   0  0  0  0  0  0  0  0  0  0  0  0
   -1.3219    3.3773   -2.0788 H   0  0  0  0  0  0  0  0  0  0  0  0
   -1.3101    3.3910   -0.2989 H   0  0  0  0  0  0  0  0  0  0  0  0
    1.3369    3.5045    1.8646 H   0  0  0  0  0  0  0  0  0  0  0  0
    1.3622    3.2772    3.6298 H   0  0  0  0  0  0  0  0  0  0  0  0
    2.8735    3.1651    2.6963 H   0  0  0  0  0  0  0  0  0  0  0  0
    2.9189    3.2495    6.4700 H   0  0  0  0  0  0  0  0  0  0  0  0
    3.6123    2.9673    4.8324 H   0  0  0  0  0  0  0  0  0  0  0  0
    6.2177    4.2744    7.4921 H   0  0  0  0  0  0  0  0  0  0  0  0
    5.0513    4.9657    6.3390 H   0  0  0  0  0  0  0  0  0  0  0  0
    4.4816    4.2917    7.8848 H   0  0  0  0  0  0  0  0  0  0  0  0
   -0.7127    1.5661   -1.2020 N   0  3  0  0  0  0  0  0  0  0  0  0
   -0.1883    1.2657   -2.0320 H   0  0  0  0  0  0  0  0  0  0  0  0
    5.0518    2.8539    6.4426 N   0  3  1  0  0  0  0  0  0  0  0  0
    5.7360    2.7636    5.6825 H   0  0  0  0  0  0  0  0  0  0  0  0
  1  2  1  0  0  0  0
  1 31  1  0  0  0  0
  1 32  1  0  0  0  0
  1 33  1  0  0  0  0
  2  3  1  6  0  0  0
  2  4  1  0  0  0  0
  2 67  1  0  0  0  0
  4  5  1  1  0  0  0
  4 10  1  0  0  0  0
  4  6  1  0  0  0  0
  6  7  1  0  0  0  0
  6 34  1  0  0  0  0
  6 35  1  0  0  0  0
  7  8  1  0  0  0  0
  7 36  1  0  0  0  0
  7 37  1  0  0  0  0
  8  9  1  6  0  0  0
  8 15  1  0  0  0  0
  8 10  1  0  0  0  0
 10 11  1  6  0  0  0
 10 29  1  0  0  0  0
 11 12  1  0  0  0  0
 11 38  1  0  0  0  0
 11 39  1  0  0  0  0
 12 13  1  0  0  0  0
 12 40  1  0  0  0  0
 12 41  1  0  0  0  0
 13 14  1  6  0  0  0
 13 20  1  0  0  0  0
 13 15  1  0  0  0  0
 15 16  1  1  0  0  0
 15 17  1  0  0  0  0
 17 18  1  0  0  0  0
 17 42  1  0  0  0  0
 17 43  1  0  0  0  0
 18 19  2  0  0  0  0
 18 44  1  0  0  0  0
 19 25  1  0  0  0  0
 19 20  1  0  0  0  0
 20 21  1  0  0  0  0
 20 28  1  1  0  0  0
 21 22  1  0  0  0  0
 21 45  1  0  0  0  0
 21 46  1  0  0  0  0
 22 23  1  0  0  0  0
 22 47  1  0  0  0  0
 22 48  1  0  0  0  0
 23 24  1  6  0  0  0
 23 25  1  0  0  0  0
 23 65  1  0  0  0  0
 25 49  1  0  0  0  0
 25 50  1  0  0  0  0
 26 51  1  0  0  0  0
 26 52  1  0  0  0  0
 26 53  1  0  0  0  0
 26 65  1  0  0  0  0
 27 54  1  0  0  0  0
 27 55  1  0  0  0  0
 27 56  1  0  0  0  0
 27 65  1  0  0  0  0
 28 57  1  0  0  0  0
 28 58  1  0  0  0  0
 28 59  1  0  0  0  0
 29 60  1  0  0  0  0
 29 61  1  0  0  0  0
 29 67  1  0  0  0  0
 30 62  1  0  0  0  0
 30 63  1  0  0  0  0
 30 64  1  0  0  0  0
 30 67  1  0  0  0  0
 65 66  1  0  0  0  0
 67 68  1  6  0  0  0
M  CHG  2  65   1  67   1
M  END
>  <cansmi>
C[NH+]([C@H]1CC[C@]2(C(=CC[C@@H]3[C@@H]2CC[C@]24[C@H]3CC[C@H]4[C@@H]([N@@H+](C2)C)C)C1)C)C

>  <HBA2>
0

>  <HBD>
2

>  <logP>
3.5446

>  <TPSA>
8.88

>  <MW>
358.604

$$$$
ZINC00899053
 OpenBabel02121623173D

 42 43  0  0  0  0  0  0  0  0999 V2000
   -0.0084    1.4278    0.0145 C   0  0  0  0  0  0  0  0  0  0  0  0
    0.0174   -0.0010    0.0110 O   0  0  0  0  0  0  0  0  0  0  0  0
    0.6221   -0.6049   -1.0469 C   0  0  0  0  0  0  0  0  0  0  0  0
    1.1809    0.1612   -2.0519 C   0  0  0  0  0  0  0  0  0  0  0  0
    1.8035   -0.4613   -3.1400 C   0  0  0  0  0  0  0  0  0  0  0  0
    1.8575   -1.8584   -3.2057 C   0  0  0  0  0  0  0  0  0  0  0  0
    1.2965   -2.6179   -2.1969 C   0  0  0  0  0  0  0  0  0  0  0  0
    0.6825   -1.9948   -1.1130 C   0  0  0  0  0  0  0  0  0  0  0  0
    0.1367   -2.7451   -0.1199 O   0  0  0  0  0  0  0  0  0  0  0  0
   -1.2336   -3.1217   -0.2696 C   0  0  0  0  0  0  0  0  0  0  0  0
    1.3481   -3.9754   -2.2600 O   0  0  0  0  0  0  0  0  0  0  0  0
    1.9972   -4.5478   -3.3972 C   0  0  0  0  0  0  0  0  0  0  0  0
    2.3986    0.3500   -4.2112 C   0  0  0  0  0  0  0  0  0  0  0  0
    2.9990   -0.2525   -5.2606 C   0  0  0  0  0  0  0  0  0  0  0  0
    3.5907    0.5542   -6.3256 C   0  0  0  0  0  0  0  0  0  0  0  0
    3.4643    1.7645   -6.3139 O   0  0  0  0  0  0  0  0  0  0  0  0
    4.2764   -0.0422   -7.3209 N   0  0  0  0  0  0  0  0  0  0  0  0
    4.3227   -1.5022   -7.3990 C   0  0  0  0  0  0  0  0  0  0  0  0
    4.3070   -1.9532   -8.8583 C   0  0  0  0  0  0  0  0  0  0  0  0
    5.3628   -1.2138   -9.6372 C   0  0  0  0  0  0  0  0  0  0  0  0
    5.6438    0.0528   -9.3358 C   0  0  0  0  0  0  0  0  0  0  0  0
    4.9110    0.7100   -8.2417 C   0  0  0  0  0  0  0  0  0  0  0  0
    4.8817    1.9231   -8.1667 O   0  0  0  0  0  0  0  0  0  0  0  0
    1.0124    1.8097    0.0035 H   0  0  0  0  0  0  0  0  0  0  0  0
   -0.5390    1.7838   -0.8686 H   0  0  0  0  0  0  0  0  0  0  0  0
   -0.5184    1.7798    0.9113 H   0  0  0  0  0  0  0  0  0  0  0  0
    1.1370    1.2389   -1.9981 H   0  0  0  0  0  0  0  0  0  0  0  0
    2.3368   -2.3421   -4.0439 H   0  0  0  0  0  0  0  0  0  0  0  0
   -1.5431   -3.7161    0.5900 H   0  0  0  0  0  0  0  0  0  0  0  0
   -1.8517   -2.2261   -0.3336 H   0  0  0  0  0  0  0  0  0  0  0  0
   -1.3514   -3.7101   -1.1796 H   0  0  0  0  0  0  0  0  0  0  0  0
    1.9682   -5.6349   -3.3232 H   0  0  0  0  0  0  0  0  0  0  0  0
    1.4845   -4.2316   -4.3056 H   0  0  0  0  0  0  0  0  0  0  0  0
    3.0342   -4.2134   -3.4301 H   0  0  0  0  0  0  0  0  0  0  0  0
    2.3558    1.4279   -4.1594 H   0  0  0  0  0  0  0  0  0  0  0  0
    3.0417   -1.3304   -5.3124 H   0  0  0  0  0  0  0  0  0  0  0  0
    5.2337   -1.8608   -6.9199 H   0  0  0  0  0  0  0  0  0  0  0  0
    3.4578   -1.9191   -6.8829 H   0  0  0  0  0  0  0  0  0  0  0  0
    4.5042   -3.0241   -8.9082 H   0  0  0  0  0  0  0  0  0  0  0  0
    3.3277   -1.7469   -9.2903 H   0  0  0  0  0  0  0  0  0  0  0  0
    5.8911   -1.7095  -10.4382 H   0  0  0  0  0  0  0  0  0  0  0  0
    6.3982    0.5915   -9.8899 H   0  0  0  0  0  0  0  0  0  0  0  0
  1  2  1  0  0  0  0
  1 24  1  0  0  0  0
  1 25  1  0  0  0  0
  1 26  1  0  0  0  0
  2  3  1  0  0  0  0
  3  8  2  0  0  0  0
  3  4  1  0  0  0  0
  4  5  2  0  0  0  0
  4 27  1  0  0  0  0
  5  6  1  0  0  0  0
  5 13  1  0  0  0  0
  6  7  2  0  0  0  0
  6 28  1  0  0  0  0
  7  8  1  0  0  0  0
  7 11  1  0  0  0  0
  8  9  1  0  0  0  0
  9 10  1  0  0  0  0
 10 29  1  0  0  0  0
 10 30  1  0  0  0  0
 10 31  1  0  0  0  0
 11 12  1  0  0  0  0
 12 32  1  0  0  0  0
 12 33  1  0  0  0  0
 12 34  1  0  0  0  0
 13 14  2  0  0  0  0
 13 35  1  0  0  0  0
 14 15  1  0  0  0  0
 14 36  1  0  0  0  0
 15 16  2  0  0  0  0
 15 17  1  0  0  0  0
 17 22  1  0  0  0  0
 17 18  1  0  0  0  0
 18 19  1  0  0  0  0
 18 37  1  0  0  0  0
 18 38  1  0  0  0  0
 19 20  1  0  0  0  0
 19 39  1  0  0  0  0
 19 40  1  0  0  0  0
 20 21  2  0  0  0  0
 20 41  1  0  0  0  0
 21 22  1  0  0  0  0
 21 42  1  0  0  0  0
 22 23  2  0  0  0  0
M  END
>  <cansmi>
COc1cc(/C=C/C(=O)N2CCC=CC2=O)cc(c1OC)OC

>  <HBA2>
6

>  <HBD>
0

>  <logP>
1.9786

>  <TPSA>
65.07

>  <MW>
317.336

$$$$
ZINC00000733
 OpenBabel02121623173D

 26 26  0  0  1  0  0  0  0  0999 V2000
   -0.0178    1.4648    0.0101 C   0  0  0  0  0  0  0  0  0  0  0  0
    0.0021   -0.0041    0.0020 N   0  3  0  0  0  0  0  0  0  0  0  0
    0.7126   -0.4907    1.1921 C   0  0  0  0  0  0  0  0  0  0  0  0
    0.7333   -2.0205    1.1837 C   0  0  2  0  0  0  0  0  0  0  0  0
   -0.2862   -2.3973    1.1019 H   0  0  0  0  0  0  0  0  0  0  0  0
    1.3528   -2.5216    2.4629 C   0  0  0  0  0  0  0  0  0  0  0  0
    2.7280   -2.5323    2.6057 C   0  0  0  0  0  0  0  0  0  0  0  0
    3.2984   -2.9915    3.7772 C   0  0  0  0  0  0  0  0  0  0  0  0
    2.4900   -3.4417    4.8109 C   0  0  0  0  0  0  0  0  0  0  0  0
    1.1104   -3.4295    4.6652 C   0  0  0  0  0  0  0  0  0  0  0  0
    0.5448   -2.9644    3.4938 C   0  0  0  0  0  0  0  0  0  0  0  0
    3.0487   -3.8944    5.9641 O   0  0  0  0  0  0  0  0  0  0  0  0
    1.5019   -2.4804    0.0702 O   0  0  0  0  0  0  0  0  0  0  0  0
    1.0047    1.8421    0.0024 H   0  0  0  0  0  0  0  0  0  0  0  0
   -0.5450    1.8259   -0.8730 H   0  0  0  0  0  0  0  0  0  0  0  0
   -0.5280    1.8163    0.9069 H   0  0  0  0  0  0  0  0  0  0  0  0
   -0.9445   -0.3533    0.0092 H   0  0  0  0  0  0  0  0  0  0  0  0
    1.7352   -0.1134    1.1844 H   0  0  0  0  0  0  0  0  0  0  0  0
    0.2024   -0.1392    2.0889 H   0  0  0  0  0  0  0  0  0  0  0  0
    3.3568   -2.1817    1.8007 H   0  0  0  0  0  0  0  0  0  0  0  0
    4.3726   -3.0004    3.8880 H   0  0  0  0  0  0  0  0  0  0  0  0
    0.4790   -3.7795    5.4685 H   0  0  0  0  0  0  0  0  0  0  0  0
   -0.5292   -2.9506    3.3816 H   0  0  0  0  0  0  0  0  0  0  0  0
    3.1826   -3.2081    6.6321 H   0  0  0  0  0  0  0  0  0  0  0  0
    2.4219   -2.1826    0.0775 H   0  0  0  0  0  0  0  0  0  0  0  0
    0.4744   -0.3295   -0.8281 H   0  0  0  0  0  0  0  0  0  0  0  0
  1  2  1  0  0  0  0
  1 14  1  0  0  0  0
  1 15  1  0  0  0  0
  1 16  1  0  0  0  0
  2  3  1  0  0  0  0
  2 17  1  0  0  0  0
  2 26  1  0  0  0  0
  3  4  1  0  0  0  0
  3 18  1  0  0  0  0
  3 19  1  0  0  0  0
  4  5  1  6  0  0  0
  4  6  1  0  0  0  0
  4 13  1  0  0  0  0
  6 11  2  0  0  0  0
  6  7  1  0  0  0  0
  7  8  2  0  0  0  0
  7 20  1  0  0  0  0
  8  9  1  0  0  0  0
  8 21  1  0  0  0  0
  9 10  2  0  0  0  0
  9 12  1  0  0  0  0
 10 11  1  0  0  0  0
 10 22  1  0  0  0  0
 11 23  1  0  0  0  0
 12 24  1  0  0  0  0
 13 25  1  0  0  0  0
M  CHG  1   2   1
M  END
>  <cansmi>
O[C@@H](c1ccc(cc1)O)C[NH2+]C

>  <HBA2>
2

>  <HBD>
3

>  <logP>
-0.3812

>  <TPSA>
57.07

>  <MW>
168.213

$$$$
ZINC03977779
 OpenBabel02121623173D

 63 65  0  0  1  0  0  0  0  0999 V2000
   -0.3421    1.1869    0.2859 C   0  0  0  0  0  0  0  0  0  0  0  0
   -0.2617   -0.3167    0.2237 C   0  0  0  0  0  0  0  0  0  0  0  0
    0.8154   -0.8631    0.1874 O   0  0  0  0  0  0  0  0  0  0  0  0
   -1.3865   -1.0489    0.2085 O   0  0  0  0  0  0  0  0  0  0  0  0
   -1.2353   -2.4728    0.1486 C   0  0  1  0  0  0  0  0  0  0  0  0
   -0.3102   -2.6986   -0.3931 H   0  0  0  0  0  0  0  0  0  0  0  0
   -1.1285   -3.0264    1.5702 C   0  0  2  0  0  0  0  0  0  0  0  0
   -0.1735   -2.6487    1.9817 H   0  0  0  0  0  0  0  0  0  0  0  0
   -1.0835   -4.5458    1.5571 C   0  0  2  0  0  0  0  0  0  0  0  0
   -0.2342   -4.7938    0.8566 H   0  0  0  0  0  0  0  0  0  0  0  0
   -2.3184   -5.1440    0.8914 C   0  0  2  0  0  0  0  0  0  0  0  0
   -2.1617   -6.6734    0.8265 C   0  0  2  0  0  0  0  0  0  0  0  0
   -3.0593   -7.1031    0.3823 H   0  0  0  0  0  0  0  0  0  0  0  0
   -1.9804   -7.2275    2.2409 C   0  0  0  0  0  0  0  0  0  0  0  0
   -0.6811   -6.6893    2.8288 C   0  0  0  0  0  0  0  0  0  0  0  0
   -0.6780   -5.1589    2.8784 C   0  0  0  0  0  0  0  0  0  0  0  0
    0.7838   -4.7423    3.1782 C   0  0  0  0  0  0  0  0  0  0  0  0
   -1.5256   -4.6936    4.0610 C   0  0  0  0  0  0  0  0  0  0  0  0
   -1.0218   -7.0349    0.0487 O   0  0  0  0  0  0  0  0  0  0  0  0
   -2.4091   -4.5907   -0.5195 C   0  0  2  0  0  0  0  0  0  0  0  0
   -2.4137   -3.0666   -0.6181 C   0  0  2  0  0  0  0  0  0  0  0  0
   -2.2742   -2.7400   -2.0021 O   0  0  0  0  0  0  0  0  0  0  0  0
   -3.0942   -3.2887   -3.0045 C   0  0  1  0  0  0  0  0  0  0  0  0
   -3.5974   -4.7089   -2.7733 C   0  0  0  0  0  0  0  0  0  0  0  0
   -3.6142   -5.0656   -1.2984 C   0  0  0  0  0  0  0  0  0  0  0  0
   -4.5252   -5.6915   -0.8243 O   0  0  0  0  0  0  0  0  0  0  0  0
   -4.3008   -2.3746   -3.2819 C   0  0  0  0  0  0  0  0  0  0  0  0
   -2.2780   -3.3133   -4.2960 C   0  0  0  0  0  0  0  0  0  0  0  0
   -1.0467   -2.8659   -4.3014 C   0  0  0  0  0  0  0  0  0  0  0  0
   -3.7139   -2.4380   -0.1237 C   0  0  0  0  0  0  0  0  0  0  0  0
   -1.2414   -5.0315   -1.2578 O   0  0  0  0  0  0  0  0  0  0  0  0
   -3.5921   -4.8624    1.6912 C   0  0  0  0  0  0  0  0  0  0  0  0
   -2.1692   -2.4984    2.3823 O   0  0  0  0  0  0  0  0  0  0  0  0
    0.6647    1.6047    0.2898 H   0  0  0  0  0  0  0  0  0  0  0  0
   -0.8861    1.5579   -0.5827 H   0  0  0  0  0  0  0  0  0  0  0  0
   -0.8630    1.4855    1.1956 H   0  0  0  0  0  0  0  0  0  0  0  0
   -2.8234   -6.9912    2.8764 H   0  0  0  0  0  0  0  0  0  0  0  0
   -1.9065   -8.3228    2.1734 H   0  0  0  0  0  0  0  0  0  0  0  0
   -0.5577   -7.0752    3.8454 H   0  0  0  0  0  0  0  0  0  0  0  0
    0.1641   -7.0289    2.2261 H   0  0  0  0  0  0  0  0  0  0  0  0
    0.8477   -3.6557    3.2346 H   0  0  0  0  0  0  0  0  0  0  0  0
    1.0971   -5.1745    4.1286 H   0  0  0  0  0  0  0  0  0  0  0  0
    1.4351   -5.1038    2.3824 H   0  0  0  0  0  0  0  0  0  0  0  0
   -2.5517   -5.0373    3.9302 H   0  0  0  0  0  0  0  0  0  0  0  0
   -1.1190   -5.1066    4.9842 H   0  0  0  0  0  0  0  0  0  0  0  0
   -1.5108   -3.6049    4.1126 H   0  0  0  0  0  0  0  0  0  0  0  0
   -0.8804   -7.9889   -0.0219 H   0  0  0  0  0  0  0  0  0  0  0  0
   -4.6100   -4.8099   -3.1763 H   0  0  0  0  0  0  0  0  0  0  0  0
   -2.9486   -5.4160   -3.3018 H   0  0  0  0  0  0  0  0  0  0  0  0
   -3.9481   -1.3973   -3.6114 H   0  0  0  0  0  0  0  0  0  0  0  0
   -4.9214   -2.8183   -4.0604 H   0  0  0  0  0  0  0  0  0  0  0  0
   -4.8875   -2.2607   -2.3703 H   0  0  0  0  0  0  0  0  0  0  0  0
   -2.7162   -3.6995   -5.2045 H   0  0  0  0  0  0  0  0  0  0  0  0
   -0.6086   -2.4797   -3.3929 H   0  0  0  0  0  0  0  0  0  0  0  0
   -0.4699   -2.8833   -5.2142 H   0  0  0  0  0  0  0  0  0  0  0  0
   -3.7493   -1.3913   -0.4257 H   0  0  0  0  0  0  0  0  0  0  0  0
   -4.5618   -2.9696   -0.5557 H   0  0  0  0  0  0  0  0  0  0  0  0
   -3.7592   -2.5043    0.9634 H   0  0  0  0  0  0  0  0  0  0  0  0
   -1.2157   -4.7230   -2.1739 H   0  0  0  0  0  0  0  0  0  0  0  0
   -3.6605   -3.7951    1.9015 H   0  0  0  0  0  0  0  0  0  0  0  0
   -4.4612   -5.1752    1.1125 H   0  0  0  0  0  0  0  0  0  0  0  0
   -3.5618   -5.4164    2.6295 H   0  0  0  0  0  0  0  0  0  0  0  0
   -2.1590   -1.5344    2.4572 H   0  0  0  0  0  0  0  0  0  0  0  0
  1  2  1  0  0  0  0
  1 34  1  0  0  0  0
  1 35  1  0  0  0  0
  1 36  1  0  0  0  0
  2  3  2  0  0  0  0
  2  4  1  0  0  0  0
  4  5  1  0  0  0  0
  5  6  1  6  0  0  0
  5 21  1  0  0  0  0
  5  7  1  0  0  0  0
  7  8  1  1  0  0  0
  7  9  1  0  0  0  0
  7 33  1  0  0  0  0
  9 10  1  6  0  0  0
  9 16  1  0  0  0  0
  9 11  1  0  0  0  0
 11 12  1  0  0  0  0
 11 20  1  0  0  0  0
 11 32  1  1  0  0  0
 12 13  1  6  0  0  0
 12 14  1  0  0  0  0
 12 19  1  0  0  0  0
 14 15  1  0  0  0  0
 14 37  1  0  0  0  0
 14 38  1  0  0  0  0
 15 16  1  0  0  0  0
 15 39  1  0  0  0  0
 15 40  1  0  0  0  0
 16 17  1  0  0  0  0
 16 18  1  0  0  0  0
 17 41  1  0  0  0  0
 17 42  1  0  0  0  0
 17 43  1  0  0  0  0
 18 44  1  0  0  0  0
 18 45  1  0  0  0  0
 18 46  1  0  0  0  0
 19 47  1  0  0  0  0
 20 25  1  0  0  0  0
 20 21  1  0  0  0  0
 20 31  1  6  0  0  0
 21 22  1  0  0  0  0
 21 30  1  1  0  0  0
 22 23  1  0  0  0  0
 23 24  1  0  0  0  0
 23 27  1  6  0  0  0
 23 28  1  0  0  0  0
 24 25  1  0  0  0  0
 24 48  1  0  0  0  0
 24 49  1  0  0  0  0
 25 26  2  0  0  0  0
 27 50  1  0  0  0  0
 27 51  1  0  0  0  0
 27 52  1  0  0  0  0
 28 29  2  0  0  0  0
 28 53  1  0  0  0  0
 29 54  1  0  0  0  0
 29 55  1  0  0  0  0
 30 56  1  0  0  0  0
 30 57  1  0  0  0  0
 30 58  1  0  0  0  0
 31 59  1  0  0  0  0
 32 60  1  0  0  0  0
 32 61  1  0  0  0  0
 32 62  1  0  0  0  0
 33 63  1  0  0  0  0
M  END
>  <cansmi>
C=C[C@@]1(C)CC(=O)[C@]2([C@@](O1)(C)[C@@H](OC(=O)C)[C@H]([C@@H]1[C@]2(C)[C@@H](O)CCC1(C)C)O)O

>  <HBA2>
7

>  <HBD>
3

>  <logP>
1.5199

>  <TPSA>
113.29

>  <MW>
410.501

$$$$
ZINC00902159
 OpenBabel02121623173D

 24 24  0  0  1  0  0  0  0  0999 V2000
   -0.0171    1.4086    0.0098 C   0  0  0  0  0  0  0  0  0  0  0  0
    1.1525    2.0867    0.0023 C   0  0  0  0  0  0  0  0  0  0  0  0
    2.3359    1.4277   -0.0126 N   0  0  0  0  0  0  0  0  0  0  0  0
    2.3918    0.0702   -0.0204 C   0  0  0  0  0  0  0  0  0  0  0  0
    1.2556   -0.6667   -0.0135 C   0  0  0  0  0  0  0  0  0  0  0  0
    0.0021   -0.0041    0.0020 C   0  0  0  0  0  0  0  0  0  0  0  0
   -1.0411   -0.6423    0.0090 O   0  0  0  0  0  0  0  0  0  0  0  0
    1.3161   -2.0263   -0.0218 O   0  0  0  0  0  0  0  0  0  0  0  0
    3.5833    2.1960   -0.0209 C   0  0  0  0  0  0  0  0  0  0  0  0
    4.0316    2.4562    1.4187 C   0  0  1  0  0  0  0  0  0  0  0  0
    4.2792    1.5095    1.8989 H   0  0  0  0  0  0  0  0  0  0  0  0
    5.2455    3.3492    1.4132 C   0  0  0  0  0  0  0  0  0  0  0  0
    5.1585    4.4986    1.8103 O   0  0  0  0  0  0  0  0  0  0  0  0
    6.3145    2.9222    1.0115 O   0  5  0  0  0  0  0  0  0  0  0  0
    2.9451    3.1113    2.1591 N   0  3  0  0  0  0  0  0  0  0  0  0
   -0.9564    1.9413    0.0261 H   0  0  0  0  0  0  0  0  0  0  0  0
    1.1431    3.1666    0.0078 H   0  0  0  0  0  0  0  0  0  0  0  0
    3.3512   -0.4257   -0.0326 H   0  0  0  0  0  0  0  0  0  0  0  0
    0.4512   -2.4586   -0.0159 H   0  0  0  0  0  0  0  0  0  0  0  0
    4.3543    1.6313   -0.5451 H   0  0  0  0  0  0  0  0  0  0  0  0
    3.4210    3.1469   -0.5283 H   0  0  0  0  0  0  0  0  0  0  0  0
    3.2407    3.2829    3.1084 H   0  0  0  0  0  0  0  0  0  0  0  0
    2.7159    3.9877    1.7146 H   0  0  0  0  0  0  0  0  0  0  0  0
    2.1323    2.5134    2.1628 H   0  0  0  0  0  0  0  0  0  0  0  0
  1  6  1  0  0  0  0
  1  2  2  0  0  0  0
  1 16  1  0  0  0  0
  2  3  1  0  0  0  0
  2 17  1  0  0  0  0
  3  4  1  0  0  0  0
  3  9  1  0  0  0  0
  4  5  2  0  0  0  0
  4 18  1  0  0  0  0
  5  6  1  0  0  0  0
  5  8  1  0  0  0  0
  6  7  2  0  0  0  0
  8 19  1  0  0  0  0
  9 10  1  0  0  0  0
  9 20  1  0  0  0  0
  9 21  1  0  0  0  0
 10 11  1  1  0  0  0
 10 12  1  0  0  0  0
 10 15  1  0  0  0  0
 12 13  2  0  0  0  0
 12 14  1  0  0  0  0
 15 22  1  0  0  0  0
 15 23  1  0  0  0  0
 15 24  1  0  0  0  0
M  CHG  2  14  -1  15   1
M  END
>  <cansmi>
[O-]C(=O)[C@H](Cn1ccc(=O)c(c1)O)[NH3+]

>  <HBA2>
5

>  <HBD>
2

>  <logP>
-3.0857

>  <TPSA>
110

>  <MW>
198.176

$$$$
ZINC05529758
 OpenBabel02121623173D

 68 72  0  0  1  0  0  0  0  0999 V2000
    2.3900    1.4306   -4.5826 C   0  0  0  0  0  0  0  0  0  0  0  0
    1.4999    2.6341   -4.2661 C   0  0  1  0  0  0  0  0  0  0  0  0
    1.1567    3.1041   -5.1878 H   0  0  0  0  0  0  0  0  0  0  0  0
    0.3281    2.2114   -3.4236 C   0  0  1  0  0  0  0  0  0  0  0  0
   -0.4677    2.9532   -3.4893 H   0  0  0  0  0  0  0  0  0  0  0  0
   -0.2643    0.8222   -3.3836 C   0  0  0  0  0  0  0  0  0  0  0  0
   -0.9453    0.8107   -1.9759 C   0  0  0  0  0  0  0  0  0  0  0  0
   -0.1737    1.8605   -1.1311 C   0  0  2  0  0  0  0  0  0  0  0  0
   -0.8025    2.7252   -0.9186 H   0  0  0  0  0  0  0  0  0  0  0  0
    0.9904    2.2517   -1.9904 C   0  0  1  0  0  0  0  0  0  0  0  0
    2.0688    1.1678   -1.9420 C   0  0  0  0  0  0  0  0  0  0  0  0
    2.7000    1.1505   -0.5554 C   0  0  0  0  0  0  0  0  0  0  0  0
    1.7065    1.6043    0.5168 C   0  0  1  0  0  0  0  0  0  0  0  0
    1.7450    2.6918    0.5799 H   0  0  0  0  0  0  0  0  0  0  0  0
    0.2860    1.1804    0.1667 C   0  0  1  0  0  0  0  0  0  0  0  0
    0.2389    0.0972    0.0551 H   0  0  0  0  0  0  0  0  0  0  0  0
   -0.6652    1.6332    1.2837 C   0  0  0  0  0  0  0  0  0  0  0  0
   -0.1847    1.1492    2.6197 C   0  0  0  0  0  0  0  0  0  0  0  0
    1.0626    0.8733    2.8588 C   0  0  0  0  0  0  0  0  0  0  0  0
    2.1552    1.0182    1.8465 C   0  0  2  0  0  0  0  0  0  0  0  0
    3.2760    1.8703    2.4483 C   0  0  0  0  0  0  0  0  0  0  0  0
    3.7289    1.2467    3.7705 C   0  0  0  0  0  0  0  0  0  0  0  0
    2.5696    1.2498    4.7680 C   0  0  1  0  0  0  0  0  0  0  0  0
    2.2043    2.2687    4.8969 H   0  0  0  0  0  0  0  0  0  0  0  0
    1.4364    0.3643    4.2401 C   0  0  0  0  0  0  0  0  0  0  0  0
    1.9801    0.8283    7.0783 C   0  0  0  0  0  0  0  0  0  0  0  0
    3.5139   -0.6526    5.9306 C   0  0  0  0  0  0  0  0  0  0  0  0
    2.7265   -0.3747    1.5738 C   0  0  0  0  0  0  0  0  0  0  0  0
    1.6070    3.6295   -2.0622 C   0  0  0  0  0  0  0  0  0  0  0  0
    2.2062    4.9612   -4.0263 C   0  0  0  0  0  0  0  0  0  0  0  0
    2.2129    0.6447   -3.8484 H   0  0  0  0  0  0  0  0  0  0  0  0
    2.1548    1.0568   -5.5791 H   0  0  0  0  0  0  0  0  0  0  0  0
    3.4366    1.7331   -4.5457 H   0  0  0  0  0  0  0  0  0  0  0  0
   -1.0017    0.6891   -4.1753 H   0  0  0  0  0  0  0  0  0  0  0  0
    0.5153    0.0631   -3.4472 H   0  0  0  0  0  0  0  0  0  0  0  0
   -1.9960    1.0872   -2.0642 H   0  0  0  0  0  0  0  0  0  0  0  0
   -0.8535   -0.1760   -1.5218 H   0  0  0  0  0  0  0  0  0  0  0  0
    2.8343    1.3822   -2.6879 H   0  0  0  0  0  0  0  0  0  0  0  0
    1.6197    0.1966   -2.1499 H   0  0  0  0  0  0  0  0  0  0  0  0
    3.5621    1.8174   -0.5478 H   0  0  0  0  0  0  0  0  0  0  0  0
    3.0314    0.1372   -0.3283 H   0  0  0  0  0  0  0  0  0  0  0  0
   -0.7026    2.7223    1.3073 H   0  0  0  0  0  0  0  0  0  0  0  0
   -1.6641    1.2433    1.0880 H   0  0  0  0  0  0  0  0  0  0  0  0
   -0.9087    0.9965    3.4064 H   0  0  0  0  0  0  0  0  0  0  0  0
    4.1172    1.9068    1.7560 H   0  0  0  0  0  0  0  0  0  0  0  0
    2.9086    2.8806    2.6283 H   0  0  0  0  0  0  0  0  0  0  0  0
    4.0534    0.2210    3.5952 H   0  0  0  0  0  0  0  0  0  0  0  0
    4.5590    1.8239    4.1778 H   0  0  0  0  0  0  0  0  0  0  0  0
    1.7733   -0.6709    4.1864 H   0  0  0  0  0  0  0  0  0  0  0  0
    0.5742    0.4364    4.9031 H   0  0  0  0  0  0  0  0  0  0  0  0
    1.1134    0.2488    6.7602 H   0  0  0  0  0  0  0  0  0  0  0  0
    2.3513    0.4367    8.0254 H   0  0  0  0  0  0  0  0  0  0  0  0
    1.6929    1.8721    7.2043 H   0  0  0  0  0  0  0  0  0  0  0  0
    4.3418   -0.6852    5.2223 H   0  0  0  0  0  0  0  0  0  0  0  0
    3.8526   -1.0128    6.9021 H   0  0  0  0  0  0  0  0  0  0  0  0
    2.7028   -1.2857    5.5710 H   0  0  0  0  0  0  0  0  0  0  0  0
    3.6874   -0.2806    1.0679 H   0  0  0  0  0  0  0  0  0  0  0  0
    2.8630   -0.9025    2.5177 H   0  0  0  0  0  0  0  0  0  0  0  0
    2.0361   -0.9332    0.9417 H   0  0  0  0  0  0  0  0  0  0  0  0
    0.8406    4.4016   -1.9952 H   0  0  0  0  0  0  0  0  0  0  0  0
    2.3566    3.7604   -1.2817 H   0  0  0  0  0  0  0  0  0  0  0  0
    2.7513    5.6603   -3.3921 H   0  0  0  0  0  0  0  0  0  0  0  0
    2.6701    4.9273   -5.0121 H   0  0  0  0  0  0  0  0  0  0  0  0
    1.1713    5.2893   -4.1229 H   0  0  0  0  0  0  0  0  0  0  0  0
    3.0571    0.7463    6.0693 N   0  3  0  0  0  0  0  0  0  0  0  0
    3.8469    1.3261    6.3766 H   0  0  0  0  0  0  0  0  0  0  0  0
    2.2409    3.5951   -3.4159 N   0  3  2  0  0  0  0  0  0  0  0  0
    3.2173    3.2897   -3.3286 H   0  0  0  0  0  0  0  0  0  0  0  0
  1  2  1  0  0  0  0
  1 31  1  0  0  0  0
  1 32  1  0  0  0  0
  1 33  1  0  0  0  0
  2  3  1  6  0  0  0
  2  4  1  0  0  0  0
  2 67  1  0  0  0  0
  4  5  1  6  0  0  0
  4 10  1  0  0  0  0
  4  6  1  0  0  0  0
  6  7  1  0  0  0  0
  6 34  1  0  0  0  0
  6 35  1  0  0  0  0
  7  8  1  0  0  0  0
  7 36  1  0  0  0  0
  7 37  1  0  0  0  0
  8  9  1  1  0  0  0
  8 15  1  0  0  0  0
  8 10  1  0  0  0  0
 10 11  1  1  0  0  0
 10 29  1  0  0  0  0
 11 12  1  0  0  0  0
 11 38  1  0  0  0  0
 11 39  1  0  0  0  0
 12 13  1  0  0  0  0
 12 40  1  0  0  0  0
 12 41  1  0  0  0  0
 13 14  1  1  0  0  0
 13 20  1  0  0  0  0
 13 15  1  0  0  0  0
 15 16  1  6  0  0  0
 15 17  1  0  0  0  0
 17 18  1  0  0  0  0
 17 42  1  0  0  0  0
 17 43  1  0  0  0  0
 18 19  2  0  0  0  0
 18 44  1  0  0  0  0
 19 25  1  0  0  0  0
 19 20  1  0  0  0  0
 20 21  1  0  0  0  0
 20 28  1  6  0  0  0
 21 22  1  0  0  0  0
 21 45  1  0  0  0  0
 21 46  1  0  0  0  0
 22 23  1  0  0  0  0
 22 47  1  0  0  0  0
 22 48  1  0  0  0  0
 23 24  1  1  0  0  0
 23 25  1  0  0  0  0
 23 65  1  0  0  0  0
 25 49  1  0  0  0  0
 25 50  1  0  0  0  0
 26 51  1  0  0  0  0
 26 52  1  0  0  0  0
 26 53  1  0  0  0  0
 26 65  1  0  0  0  0
 27 54  1  0  0  0  0
 27 55  1  0  0  0  0
 27 56  1  0  0  0  0
 27 65  1  0  0  0  0
 28 57  1  0  0  0  0
 28 58  1  0  0  0  0
 28 59  1  0  0  0  0
 29 60  1  0  0  0  0
 29 61  1  0  0  0  0
 29 67  1  0  0  0  0
 30 62  1  0  0  0  0
 30 63  1  0  0  0  0
 30 64  1  0  0  0  0
 30 67  1  0  0  0  0
 65 66  1  0  0  0  0
 67 68  1  1  0  0  0
M  CHG  2  65   1  67   1
M  END
>  <cansmi>
C[NH+]([C@H]1CC[C@]2(C(=CC[C@@H]3[C@@H]2CC[C@@]24[C@H]3CC[C@@H]4[C@@H]([N@H+](C2)C)C)C1)C)C

>  <HBA2>
0

>  <HBD>
2

>  <logP>
3.5446

>  <TPSA>
8.88

>  <MW>
358.604

$$$$
ZINC00019968
 OpenBabel02121623173D

 40 42  0  0  1  0  0  0  0  0999 V2000
   -0.0178    1.4600    0.0101 C   0  0  0  0  0  0  0  0  0  0  0  0
    1.1707    2.1184    0.0023 C   0  0  0  0  0  0  0  0  0  0  0  0
    2.3765    1.3882   -0.0132 C   0  0  0  0  0  0  0  0  0  0  0  0
    3.4351    1.9907   -0.0201 O   0  0  0  0  0  0  0  0  0  0  0  0
    2.3880    0.0463   -0.0199 O   0  0  0  0  0  0  0  0  0  0  0  0
    1.2420   -0.6692   -0.0129 C   0  0  0  0  0  0  0  0  0  0  0  0
    0.0021   -0.0041    0.0020 C   0  0  0  0  0  0  0  0  0  0  0  0
   -1.1889   -0.7400    0.0089 C   0  0  0  0  0  0  0  0  0  0  0  0
   -1.1392   -2.1173    0.0006 C   0  0  0  0  0  0  0  0  0  0  0  0
    0.0935   -2.7762   -0.0142 C   0  0  0  0  0  0  0  0  0  0  0  0
    1.2750   -2.0558   -0.0207 C   0  0  0  0  0  0  0  0  0  0  0  0
    0.1320   -4.1337   -0.0219 O   0  0  0  0  0  0  0  0  0  0  0  0
   -2.2930   -2.8376    0.0072 O   0  0  0  0  0  0  0  0  0  0  0  0
   -3.5175   -2.1011    0.0229 C   0  0  2  0  0  0  0  0  0  0  0  0
   -3.4812   -1.3522    0.8141 H   0  0  0  0  0  0  0  0  0  0  0  0
   -4.6853   -3.0574    0.2784 C   0  0  2  0  0  0  0  0  0  0  0  0
   -4.6978   -3.8306   -0.4898 H   0  0  0  0  0  0  0  0  0  0  0  0
   -5.9987   -2.2704    0.2339 C   0  0  1  0  0  0  0  0  0  0  0  0
   -6.0074   -1.5299    1.0337 H   0  0  0  0  0  0  0  0  0  0  0  0
   -6.1119   -1.5635   -1.1203 C   0  0  1  0  0  0  0  0  0  0  0  0
   -7.0171   -0.9565   -1.1398 H   0  0  0  0  0  0  0  0  0  0  0  0
   -4.8890   -0.6648   -1.3217 C   0  0  1  0  0  0  0  0  0  0  0  0
   -4.8707    0.1030   -0.5482 H   0  0  0  0  0  0  0  0  0  0  0  0
   -3.7005   -1.4538   -1.2379 O   0  0  0  0  0  0  0  0  0  0  0  0
   -4.9649   -0.0008   -2.6980 C   0  0  0  0  0  0  0  0  0  0  0  0
   -3.8864    0.9259   -2.8400 O   0  0  0  0  0  0  0  0  0  0  0  0
   -6.1674   -2.5375   -2.1644 O   0  0  0  0  0  0  0  0  0  0  0  0
   -7.0990   -3.1669    0.4005 O   0  0  0  0  0  0  0  0  0  0  0  0
   -4.5338   -3.6636    1.5635 O   0  0  0  0  0  0  0  0  0  0  0  0
   -0.9519    2.0019    0.0263 H   0  0  0  0  0  0  0  0  0  0  0  0
    1.1916    3.1982    0.0075 H   0  0  0  0  0  0  0  0  0  0  0  0
   -2.1414   -0.2311    0.0211 H   0  0  0  0  0  0  0  0  0  0  0  0
    2.2229   -2.5733   -0.0322 H   0  0  0  0  0  0  0  0  0  0  0  0
    0.1350   -4.5221   -0.9075 H   0  0  0  0  0  0  0  0  0  0  0  0
   -4.8933   -0.7632   -3.4737 H   0  0  0  0  0  0  0  0  0  0  0  0
   -5.9133    0.5278   -2.7946 H   0  0  0  0  0  0  0  0  0  0  0  0
   -3.8718    1.3850   -3.6909 H   0  0  0  0  0  0  0  0  0  0  0  0
   -6.9171   -3.1446   -2.0964 H   0  0  0  0  0  0  0  0  0  0  0  0
   -7.0869   -3.6535    1.2361 H   0  0  0  0  0  0  0  0  0  0  0  0
   -3.7194   -4.1754    1.6634 H   0  0  0  0  0  0  0  0  0  0  0  0
  1  7  1  0  0  0  0
  1  2  2  0  0  0  0
  1 30  1  0  0  0  0
  2  3  1  0  0  0  0
  2 31  1  0  0  0  0
  3  4  2  0  0  0  0
  3  5  1  0  0  0  0
  5  6  1  0  0  0  0
  6 11  2  0  0  0  0
  6  7  1  0  0  0  0
  7  8  2  0  0  0  0
  8  9  1  0  0  0  0
  8 32  1  0  0  0  0
  9 10  2  0  0  0  0
  9 13  1  0  0  0  0
 10 11  1  0  0  0  0
 10 12  1  0  0  0  0
 11 33  1  0  0  0  0
 12 34  1  0  0  0  0
 13 14  1  0  0  0  0
 14 15  1  1  0  0  0
 14 24  1  0  0  0  0
 14 16  1  0  0  0  0
 16 17  1  6  0  0  0
 16 18  1  0  0  0  0
 16 29  1  0  0  0  0
 18 19  1  1  0  0  0
 18 20  1  0  0  0  0
 18 28  1  0  0  0  0
 20 21  1  6  0  0  0
 20 22  1  0  0  0  0
 20 27  1  0  0  0  0
 22 23  1  1  0  0  0
 22 24  1  0  0  0  0
 22 25  1  0  0  0  0
 25 26  1  0  0  0  0
 25 35  1  0  0  0  0
 25 36  1  0  0  0  0
 26 37  1  0  0  0  0
 27 38  1  0  0  0  0
 28 39  1  0  0  0  0
 29 40  1  0  0  0  0
M  END
>  <cansmi>
OC[C@@H]1O[C@H](Oc2cc3ccc(=O)oc3cc2O)[C@H]([C@@H]([C@@H]1O)O)O

>  <HBA2>
9

>  <HBD>
5

>  <logP>
-1.3227

>  <TPSA>
149.82

>  <MW>
340.282

$$$$
ZINC06930964
 OpenBabel02121623173D

 47 48  0  0  1  0  0  0  0  0999 V2000
    1.1069    2.9682    5.6936 C   0  0  0  0  0  0  0  0  0  0  0  0
    1.3153    3.5390    4.2895 C   0  0  2  0  0  0  0  0  0  0  0  0
    2.2766    3.2040    3.8998 H   0  0  0  0  0  0  0  0  0  0  0  0
    1.2944    5.0686    4.3519 C   0  0  1  0  0  0  0  0  0  0  0  0
    2.1197    5.4191    4.9717 H   0  0  0  0  0  0  0  0  0  0  0  0
    1.4432    5.6317    2.9352 C   0  0  1  0  0  0  0  0  0  0  0  0
    2.4108    5.3401    2.5266 H   0  0  0  0  0  0  0  0  0  0  0  0
    0.3230    5.0705    2.0540 C   0  0  1  0  0  0  0  0  0  0  0  0
    0.4535    5.4223    1.0306 H   0  0  0  0  0  0  0  0  0  0  0  0
    0.3812    3.5409    2.0805 C   0  0  1  0  0  0  0  0  0  0  0  0
    1.3302    3.2059    1.6618 H   0  0  0  0  0  0  0  0  0  0  0  0
    0.2681    3.0844    3.4300 O   0  0  0  0  0  0  0  0  0  0  0  0
   -0.6956    3.0095    1.3058 O   0  0  0  0  0  0  0  0  0  0  0  0
   -0.5989    1.6046    1.0630 C   0  0  2  0  0  0  0  0  0  0  0  0
    0.0268    1.1441    1.8276 H   0  0  0  0  0  0  0  0  0  0  0  0
    0.0200    1.3651   -0.3175 C   0  0  1  0  0  0  0  0  0  0  0  0
    0.1396    0.2944   -0.4827 H   0  0  0  0  0  0  0  0  0  0  0  0
   -0.9050    1.9489   -1.3899 C   0  0  1  0  0  0  0  0  0  0  0  0
   -0.4975    1.7353   -2.3780 H   0  0  0  0  0  0  0  0  0  0  0  0
   -2.2912    1.3126   -1.2583 C   0  0  1  0  0  0  0  0  0  0  0  0
   -2.2168    0.2395   -1.4344 H   0  0  0  0  0  0  0  0  0  0  0  0
   -2.7981    1.5459    0.0573 O   0  0  0  0  0  0  0  0  0  0  0  0
   -1.9990    0.9816    1.0989 C   0  0  2  0  0  0  0  0  0  0  0  0
   -1.9207   -0.0959    0.9539 H   0  0  0  0  0  0  0  0  0  0  0  0
   -2.6070    1.2492    2.3641 O   0  0  0  0  0  0  0  0  0  0  0  0
   -3.8189    0.5268    2.5910 C   0  0  0  0  0  0  0  0  0  0  0  0
   -3.2377    1.9341   -2.2874 C   0  0  0  0  0  0  0  0  0  0  0  0
   -4.4972    1.2606   -2.2439 O   0  0  0  0  0  0  0  0  0  0  0  0
   -1.0098    3.3629   -1.2119 O   0  0  0  0  0  0  0  0  0  0  0  0
    1.2958    2.0050   -0.3869 O   0  0  0  0  0  0  0  0  0  0  0  0
   -0.9421    5.5090    2.5533 O   0  0  0  0  0  0  0  0  0  0  0  0
    1.3513    7.0572    2.9753 O   0  0  0  0  0  0  0  0  0  0  0  0
    0.0557    5.5067    4.9136 O   0  0  0  0  0  0  0  0  0  0  0  0
    1.1208    1.8792    5.6488 H   0  0  0  0  0  0  0  0  0  0  0  0
    1.9058    3.3151    6.3491 H   0  0  0  0  0  0  0  0  0  0  0  0
    0.1458    3.3036    6.0833 H   0  0  0  0  0  0  0  0  0  0  0  0
   -4.2177    0.7851    3.5720 H   0  0  0  0  0  0  0  0  0  0  0  0
   -4.5467    0.7878    1.8227 H   0  0  0  0  0  0  0  0  0  0  0  0
   -3.6168   -0.5436    2.5513 H   0  0  0  0  0  0  0  0  0  0  0  0
   -3.3820    2.9897   -2.0573 H   0  0  0  0  0  0  0  0  0  0  0  0
   -2.8068    1.8350   -3.2837 H   0  0  0  0  0  0  0  0  0  0  0  0
   -5.1482    1.6031   -2.8717 H   0  0  0  0  0  0  0  0  0  0  0  0
   -1.5817    3.7993   -1.8581 H   0  0  0  0  0  0  0  0  0  0  0  0
    1.7446    1.8964   -1.2366 H   0  0  0  0  0  0  0  0  0  0  0  0
   -1.6988    5.1863    2.0451 H   0  0  0  0  0  0  0  0  0  0  0  0
    1.4372    7.4813    2.1105 H   0  0  0  0  0  0  0  0  0  0  0  0
   -0.1060    5.1828    5.8102 H   0  0  0  0  0  0  0  0  0  0  0  0
  1  2  1  0  0  0  0
  1 34  1  0  0  0  0
  1 35  1  0  0  0  0
  1 36  1  0  0  0  0
  2  3  1  6  0  0  0
  2 12  1  0  0  0  0
  2  4  1  0  0  0  0
  4  5  1  1  0  0  0
  4  6  1  0  0  0  0
  4 33  1  0  0  0  0
  6  7  1  6  0  0  0
  6  8  1  0  0  0  0
  6 32  1  0  0  0  0
  8  9  1  6  0  0  0
  8 10  1  0  0  0  0
  8 31  1  0  0  0  0
 10 11  1  6  0  0  0
 10 12  1  0  0  0  0
 10 13  1  0  0  0  0
 13 14  1  0  0  0  0
 14 15  1  1  0  0  0
 14 23  1  0  0  0  0
 14 16  1  0  0  0  0
 16 17  1  6  0  0  0
 16 18  1  0  0  0  0
 16 30  1  0  0  0  0
 18 19  1  6  0  0  0
 18 20  1  0  0  0  0
 18 29  1  0  0  0  0
 20 21  1  6  0  0  0
 20 22  1  0  0  0  0
 20 27  1  0  0  0  0
 22 23  1  0  0  0  0
 23 24  1  6  0  0  0
 23 25  1  0  0  0  0
 25 26  1  0  0  0  0
 26 37  1  0  0  0  0
 26 38  1  0  0  0  0
 26 39  1  0  0  0  0
 27 28  1  0  0  0  0
 27 40  1  0  0  0  0
 27 41  1  0  0  0  0
 28 42  1  0  0  0  0
 29 43  1  0  0  0  0
 30 44  1  0  0  0  0
 31 45  1  0  0  0  0
 32 46  1  0  0  0  0
 33 47  1  0  0  0  0
M  END
>  <cansmi>
CO[C@H]1O[C@@H](CO)[C@H]([C@H]([C@H]1O[C@@H]1O[C@H](C)[C@@H]([C@@H]([C@@H]1O)O)O)O)O

>  <HBA2>
10

>  <HBD>
6

>  <logP>
-3.7155

>  <TPSA>
158.3

>  <MW>
340.324

$$$$
ZINC06930996
 OpenBabel02121623173D

 47 48  0  0  1  0  0  0  0  0999 V2000
    3.7396    4.1277    1.8032 C   0  0  0  0  0  0  0  0  0  0  0  0
    3.5978    2.9932    0.7865 C   0  0  2  0  0  0  0  0  0  0  0  0
    4.5859    2.6898    0.4403 H   0  0  0  0  0  0  0  0  0  0  0  0
    2.7652    3.4756   -0.4041 C   0  0  2  0  0  0  0  0  0  0  0  0
    1.7914    3.8171   -0.0531 H   0  0  0  0  0  0  0  0  0  0  0  0
    2.5764    2.3167   -1.3898 C   0  0  1  0  0  0  0  0  0  0  0  0
    3.5466    2.0075   -1.7788 H   0  0  0  0  0  0  0  0  0  0  0  0
    1.9201    1.1422   -0.6576 C   0  0  1  0  0  0  0  0  0  0  0  0
    1.8319    0.2935   -1.3359 H   0  0  0  0  0  0  0  0  0  0  0  0
    2.7854    0.7499    0.5428 C   0  0  1  0  0  0  0  0  0  0  0  0
    3.7627    0.4172    0.1932 H   0  0  0  0  0  0  0  0  0  0  0  0
    2.9462    1.8803    1.4021 O   0  0  0  0  0  0  0  0  0  0  0  0
    2.1506   -0.3093    1.2620 O   0  0  0  0  0  0  0  0  0  0  0  0
    2.9792   -0.9150    2.2563 C   0  0  2  0  0  0  0  0  0  0  0  0
    3.7628   -0.2173    2.5517 H   0  0  0  0  0  0  0  0  0  0  0  0
    3.6133   -2.1882    1.6879 C   0  0  1  0  0  0  0  0  0  0  0  0
    4.2839   -2.6236    2.4287 H   0  0  0  0  0  0  0  0  0  0  0  0
    2.5050   -3.1897    1.3486 C   0  0  1  0  0  0  0  0  0  0  0  0
    2.9493   -4.1199    0.9944 H   0  0  0  0  0  0  0  0  0  0  0  0
    1.6747   -3.4651    2.6049 C   0  0  1  0  0  0  0  0  0  0  0  0
    2.3081   -3.9187    3.3673 H   0  0  0  0  0  0  0  0  0  0  0  0
    1.1395   -2.2358    3.0995 O   0  0  0  0  0  0  0  0  0  0  0  0
    2.1305   -1.2782    3.4776 C   0  0  2  0  0  0  0  0  0  0  0  0
    2.7701   -1.7029    4.2513 H   0  0  0  0  0  0  0  0  0  0  0  0
    1.4908   -0.1033    3.9798 O   0  0  0  0  0  0  0  0  0  0  0  0
    0.8560   -0.2839    5.2473 C   0  0  0  0  0  0  0  0  0  0  0  0
    0.5287   -4.4185    2.2603 C   0  0  0  0  0  0  0  0  0  0  0  0
   -0.1767   -4.7663    3.4534 O   0  0  0  0  0  0  0  0  0  0  0  0
    1.6638   -2.6443    0.3303 O   0  0  0  0  0  0  0  0  0  0  0  0
    4.3479   -1.8692    0.5044 O   0  0  0  0  0  0  0  0  0  0  0  0
    0.6210    1.5281   -0.2041 O   0  0  0  0  0  0  0  0  0  0  0  0
    1.7384    2.7358   -2.4687 O   0  0  0  0  0  0  0  0  0  0  0  0
    3.4424    4.5522   -1.0555 O   0  0  0  0  0  0  0  0  0  0  0  0
    4.3316    3.7838    2.6513 H   0  0  0  0  0  0  0  0  0  0  0  0
    4.2367    4.9765    1.3335 H   0  0  0  0  0  0  0  0  0  0  0  0
    2.7515    4.4312    2.1491 H   0  0  0  0  0  0  0  0  0  0  0  0
    1.5985   -0.5864    5.9857 H   0  0  0  0  0  0  0  0  0  0  0  0
    0.3942    0.6530    5.5591 H   0  0  0  0  0  0  0  0  0  0  0  0
    0.0910   -1.0559    5.1638 H   0  0  0  0  0  0  0  0  0  0  0  0
   -0.1533   -3.9302    1.5642 H   0  0  0  0  0  0  0  0  0  0  0  0
    0.9324   -5.3207    1.8008 H   0  0  0  0  0  0  0  0  0  0  0  0
   -0.9185   -5.3699    3.3100 H   0  0  0  0  0  0  0  0  0  0  0  0
    0.9357   -3.2245    0.0690 H   0  0  0  0  0  0  0  0  0  0  0  0
    4.7770   -2.6306    0.0906 H   0  0  0  0  0  0  0  0  0  0  0  0
    0.1474    0.8317    0.2710 H   0  0  0  0  0  0  0  0  0  0  0  0
    1.5711    2.0476   -3.1271 H   0  0  0  0  0  0  0  0  0  0  0  0
    3.5989    5.3193   -0.4879 H   0  0  0  0  0  0  0  0  0  0  0  0
  1  2  1  0  0  0  0
  1 34  1  0  0  0  0
  1 35  1  0  0  0  0
  1 36  1  0  0  0  0
  2  3  1  6  0  0  0
  2 12  1  0  0  0  0
  2  4  1  0  0  0  0
  4  5  1  1  0  0  0
  4  6  1  0  0  0  0
  4 33  1  0  0  0  0
  6  7  1  6  0  0  0
  6  8  1  0  0  0  0
  6 32  1  0  0  0  0
  8  9  1  6  0  0  0
  8 10  1  0  0  0  0
  8 31  1  0  0  0  0
 10 11  1  6  0  0  0
 10 12  1  0  0  0  0
 10 13  1  0  0  0  0
 13 14  1  0  0  0  0
 14 15  1  1  0  0  0
 14 23  1  0  0  0  0
 14 16  1  0  0  0  0
 16 17  1  1  0  0  0
 16 18  1  0  0  0  0
 16 30  1  0  0  0  0
 18 19  1  6  0  0  0
 18 20  1  0  0  0  0
 18 29  1  0  0  0  0
 20 21  1  1  0  0  0
 20 22  1  0  0  0  0
 20 27  1  0  0  0  0
 22 23  1  0  0  0  0
 23 24  1  1  0  0  0
 23 25  1  0  0  0  0
 25 26  1  0  0  0  0
 26 37  1  0  0  0  0
 26 38  1  0  0  0  0
 26 39  1  0  0  0  0
 27 28  1  0  0  0  0
 27 40  1  0  0  0  0
 27 41  1  0  0  0  0
 28 42  1  0  0  0  0
 29 43  1  0  0  0  0
 30 44  1  0  0  0  0
 31 45  1  0  0  0  0
 32 46  1  0  0  0  0
 33 47  1  0  0  0  0
M  END
>  <cansmi>
CO[C@H]1O[C@@H](CO)[C@H]([C@H]([C@H]1O[C@@H]1O[C@H](C)[C@H]([C@@H]([C@@H]1O)O)O)O)O

>  <HBA2>
10

>  <HBD>
6

>  <logP>
-3.7155

>  <TPSA>
158.3

>  <MW>
340.324

$$$$
ZINC05664615
 OpenBabel02121623173D

 55 57  0  0  1  0  0  0  0  0999 V2000
    2.0120    1.8667   -1.4051 C   0  0  0  0  0  0  0  0  0  0  0  0
    1.4035    2.2351   -0.0432 C   0  0  1  0  0  0  0  0  0  0  0  0
   -0.1124    2.3328   -0.1831 C   0  0  0  0  0  0  0  0  0  0  0  0
   -0.6836    0.9670   -0.5715 C   0  0  0  0  0  0  0  0  0  0  0  0
   -0.3599   -0.0700    0.4958 C   0  0  1  0  0  0  0  0  0  0  0  0
   -0.6963   -1.0547    0.1304 H   0  0  0  0  0  0  0  0  0  0  0  0
    1.1383   -0.1601    0.7758 C   0  0  1  0  0  0  0  0  0  0  0  0
    1.7564    1.2134    1.0363 C   0  0  2  0  0  0  0  0  0  0  0  0
    2.8520    1.1010    1.0575 H   0  0  0  0  0  0  0  0  0  0  0  0
    1.3047    1.7002    2.4170 C   0  0  0  0  0  0  0  0  0  0  0  0
    1.9274    3.0525    2.7833 C   0  0  0  0  0  0  0  0  0  0  0  0
    1.5794    4.0237    1.6760 C   0  0  0  0  0  0  0  0  0  0  0  0
    0.9539    5.1441    1.9094 C   0  0  0  0  0  0  0  0  0  0  0  0
    2.0075    3.6080    0.2915 C   0  0  2  0  0  0  0  0  0  0  0  0
    3.1009    3.5123    0.2730 H   0  0  0  0  0  0  0  0  0  0  0  0
    1.5876    4.6534   -0.7364 C   0  0  0  0  0  0  0  0  0  0  0  0
    2.3531    5.9292   -0.4968 C   0  0  0  0  0  0  0  0  0  0  0  0
    3.0599    6.4763   -1.4827 C   0  0  0  0  0  0  0  0  0  0  0  0
    3.2070    5.9478   -2.8949 C   0  0  1  0  0  0  0  0  0  0  0  0
    2.2372    5.9093   -3.3910 H   0  0  0  0  0  0  0  0  0  0  0  0
    4.1220    6.9729   -3.5851 C   0  0  0  0  0  0  0  0  0  0  0  0
    4.4430    7.9762   -2.5879 O   0  0  0  0  0  0  0  0  0  0  0  0
    3.8563    7.7079   -1.4150 C   0  0  0  0  0  0  0  0  0  0  0  0
    3.9684    8.3969   -0.4200 O   0  0  0  0  0  0  0  0  0  0  0  0
    3.8171    4.6556   -2.8847 O   0  0  0  0  0  0  0  0  0  0  0  0
    1.3079   -1.0472    2.0325 C   0  0  0  0  0  0  0  0  0  0  0  0
    1.8403   -0.9230   -0.3511 C   0  0  0  0  0  0  0  0  0  0  0  0
    1.3979   -2.2818   -0.3540 O   0  0  0  0  0  0  0  0  0  0  0  0
   -1.0779    0.2135    1.6961 O   0  0  0  0  0  0  0  0  0  0  0  0
    1.9201    2.7136   -2.0852 H   0  0  0  0  0  0  0  0  0  0  0  0
    3.0651    1.6164   -1.2768 H   0  0  0  0  0  0  0  0  0  0  0  0
    1.4825    1.0089   -1.8196 H   0  0  0  0  0  0  0  0  0  0  0  0
   -0.3824    3.0461   -0.9636 H   0  0  0  0  0  0  0  0  0  0  0  0
   -0.5528    2.6540    0.7613 H   0  0  0  0  0  0  0  0  0  0  0  0
   -1.7760    1.0610   -0.6507 H   0  0  0  0  0  0  0  0  0  0  0  0
   -0.3084    0.6513   -1.5402 H   0  0  0  0  0  0  0  0  0  0  0  0
    0.2198    1.8066    2.4335 H   0  0  0  0  0  0  0  0  0  0  0  0
    1.6114    1.0082    3.2036 H   0  0  0  0  0  0  0  0  0  0  0  0
    3.0081    2.9517    2.8602 H   0  0  0  0  0  0  0  0  0  0  0  0
    1.5149    3.4044    3.7267 H   0  0  0  0  0  0  0  0  0  0  0  0
    0.7241    5.8142    1.0942 H   0  0  0  0  0  0  0  0  0  0  0  0
    0.6659    5.4018    2.9179 H   0  0  0  0  0  0  0  0  0  0  0  0
    1.8023    4.2837   -1.7391 H   0  0  0  0  0  0  0  0  0  0  0  0
    0.5192    4.8474   -0.6417 H   0  0  0  0  0  0  0  0  0  0  0  0
    2.3281    6.3995    0.4751 H   0  0  0  0  0  0  0  0  0  0  0  0
    3.6045    7.4343   -4.4262 H   0  0  0  0  0  0  0  0  0  0  0  0
    5.0330    6.4839   -3.9299 H   0  0  0  0  0  0  0  0  0  0  0  0
    3.9355    4.2697   -3.7634 H   0  0  0  0  0  0  0  0  0  0  0  0
    0.8911   -2.0356    1.8386 H   0  0  0  0  0  0  0  0  0  0  0  0
    2.3674   -1.1402    2.2714 H   0  0  0  0  0  0  0  0  0  0  0  0
    0.7847   -0.5908    2.8728 H   0  0  0  0  0  0  0  0  0  0  0  0
    1.5992   -0.4604   -1.3081 H   0  0  0  0  0  0  0  0  0  0  0  0
    2.9184   -0.8922   -0.1939 H   0  0  0  0  0  0  0  0  0  0  0  0
    1.8024   -2.8256   -1.0437 H   0  0  0  0  0  0  0  0  0  0  0  0
   -2.0390    0.2113    1.5893 H   0  0  0  0  0  0  0  0  0  0  0  0
  1 30  1  0  0  0  0
  1 31  1  0  0  0  0
  1 32  1  0  0  0  0
  2  1  1  6  0  0  0
  2  8  1  0  0  0  0
  2 14  1  0  0  0  0
  2  3  1  0  0  0  0
  3  4  1  0  0  0  0
  3 33  1  0  0  0  0
  3 34  1  0  0  0  0
  4  5  1  0  0  0  0
  4 35  1  0  0  0  0
  4 36  1  0  0  0  0
  5  6  1  6  0  0  0
  5  7  1  0  0  0  0
  5 29  1  0  0  0  0
  7  8  1  0  0  0  0
  7 26  1  1  0  0  0
  7 27  1  0  0  0  0
  8  9  1  1  0  0  0
  8 10  1  0  0  0  0
 10 11  1  0  0  0  0
 10 37  1  0  0  0  0
 10 38  1  0  0  0  0
 11 12  1  0  0  0  0
 11 39  1  0  0  0  0
 11 40  1  0  0  0  0
 12 13  2  0  0  0  0
 12 14  1  0  0  0  0
 13 41  1  0  0  0  0
 13 42  1  0  0  0  0
 14 15  1  6  0  0  0
 14 16  1  0  0  0  0
 16 17  1  0  0  0  0
 16 43  1  0  0  0  0
 16 44  1  0  0  0  0
 17 18  2  0  0  0  0
 17 45  1  0  0  0  0
 18 23  1  0  0  0  0
 18 19  1  0  0  0  0
 19 20  1  6  0  0  0
 19 21  1  0  0  0  0
 19 25  1  0  0  0  0
 21 22  1  0  0  0  0
 21 46  1  0  0  0  0
 21 47  1  0  0  0  0
 22 23  1  0  0  0  0
 23 24  2  0  0  0  0
 25 48  1  0  0  0  0
 26 49  1  0  0  0  0
 26 50  1  0  0  0  0
 26 51  1  0  0  0  0
 27 28  1  0  0  0  0
 27 52  1  0  0  0  0
 27 53  1  0  0  0  0
 28 54  1  0  0  0  0
 29 55  1  0  0  0  0
M  END
>  <cansmi>
OC[C@]1(C)[C@@H](O)CC[C@@]2([C@H]1CCC(=C)[C@@H]2C/C=C/1\[C@H](O)COC1=O)C

>  <HBA2>
5

>  <HBD>
3

>  <logP>
1.9626

>  <TPSA>
86.99

>  <MW>
350.449

$$$$
ZINC05664617
 OpenBabel02121623173D

 55 57  0  0  1  0  0  0  0  0999 V2000
   -0.3652    0.5570   -0.0002 C   0  0  0  0  0  0  0  0  0  0  0  0
   -0.9529    1.1197    1.3029 C   0  0  1  0  0  0  0  0  0  0  0  0
   -0.4874    2.5619    1.4787 C   0  0  0  0  0  0  0  0  0  0  0  0
   -1.0702    3.4403    0.3699 C   0  0  0  0  0  0  0  0  0  0  0  0
   -2.5925    3.4012    0.4118 C   0  0  2  0  0  0  0  0  0  0  0  0
   -2.9377    3.8282    1.3590 H   0  0  0  0  0  0  0  0  0  0  0  0
   -3.1242    1.9753    0.2847 C   0  0  1  0  0  0  0  0  0  0  0  0
   -2.4774    1.0554    1.3207 C   0  0  2  0  0  0  0  0  0  0  0  0
   -2.7898    0.0225    1.1196 H   0  0  0  0  0  0  0  0  0  0  0  0
   -3.0175    1.4616    2.6990 C   0  0  0  0  0  0  0  0  0  0  0  0
   -2.4586    0.5891    3.8252 C   0  0  0  0  0  0  0  0  0  0  0  0
   -0.9490    0.6304    3.7386 C   0  0  0  0  0  0  0  0  0  0  0  0
   -0.2081    0.9864    4.7518 C   0  0  0  0  0  0  0  0  0  0  0  0
   -0.3618    0.2304    2.4093 C   0  0  2  0  0  0  0  0  0  0  0  0
   -0.6398   -0.8090    2.1957 H   0  0  0  0  0  0  0  0  0  0  0  0
    1.1590    0.3399    2.4389 C   0  0  0  0  0  0  0  0  0  0  0  0
    1.7161   -0.6655    3.4135 C   0  0  0  0  0  0  0  0  0  0  0  0
    2.6344   -1.5418    3.0135 C   0  0  0  0  0  0  0  0  0  0  0  0
    3.2256   -1.6656    1.6242 C   0  0  1  0  0  0  0  0  0  0  0  0
    3.7437   -0.7476    1.3465 H   0  0  0  0  0  0  0  0  0  0  0  0
    4.2215   -2.8311    1.7434 C   0  0  0  0  0  0  0  0  0  0  0  0
    4.1550   -3.2912    3.1174 O   0  0  0  0  0  0  0  0  0  0  0  0
    3.2791   -2.5754    3.8331 C   0  0  0  0  0  0  0  0  0  0  0  0
    3.0444   -2.7602    5.0111 O   0  0  0  0  0  0  0  0  0  0  0  0
    2.2058   -1.9739    0.6718 O   0  0  0  0  0  0  0  0  0  0  0  0
   -4.6504    2.0350    0.5266 C   0  0  0  0  0  0  0  0  0  0  0  0
   -2.9606    1.4733   -1.1508 C   0  0  0  0  0  0  0  0  0  0  0  0
   -3.7139    2.3055   -2.0351 O   0  0  0  0  0  0  0  0  0  0  0  0
   -3.1166    4.1954   -0.6589 O   0  0  0  0  0  0  0  0  0  0  0  0
   -0.8456   -0.3929   -0.2350 H   0  0  0  0  0  0  0  0  0  0  0  0
    0.7067    0.4015    0.1220 H   0  0  0  0  0  0  0  0  0  0  0  0
   -0.5397    1.2629   -0.8121 H   0  0  0  0  0  0  0  0  0  0  0  0
   -0.8164    2.9404    2.4478 H   0  0  0  0  0  0  0  0  0  0  0  0
    0.6008    2.6235    1.4238 H   0  0  0  0  0  0  0  0  0  0  0  0
   -0.7040    3.1259   -0.6029 H   0  0  0  0  0  0  0  0  0  0  0  0
   -0.7387    4.4742    0.5368 H   0  0  0  0  0  0  0  0  0  0  0  0
   -4.1034    1.3469    2.7434 H   0  0  0  0  0  0  0  0  0  0  0  0
   -2.7624    2.5045    2.8921 H   0  0  0  0  0  0  0  0  0  0  0  0
   -2.8058   -0.4364    3.7049 H   0  0  0  0  0  0  0  0  0  0  0  0
   -2.7828    0.9781    4.7895 H   0  0  0  0  0  0  0  0  0  0  0  0
    0.8675    1.0018    4.6552 H   0  0  0  0  0  0  0  0  0  0  0  0
   -0.6703    1.2657    5.6871 H   0  0  0  0  0  0  0  0  0  0  0  0
    1.5570    0.1406    1.4439 H   0  0  0  0  0  0  0  0  0  0  0  0
    1.4449    1.3446    2.7501 H   0  0  0  0  0  0  0  0  0  0  0  0
    1.3702   -0.6749    4.4365 H   0  0  0  0  0  0  0  0  0  0  0  0
    3.9374   -3.6361    1.0656 H   0  0  0  0  0  0  0  0  0  0  0  0
    5.2294   -2.4866    1.5122 H   0  0  0  0  0  0  0  0  0  0  0  0
    2.5290   -2.0646   -0.2350 H   0  0  0  0  0  0  0  0  0  0  0  0
   -4.8448    2.4221    1.5268 H   0  0  0  0  0  0  0  0  0  0  0  0
   -5.1100    2.6911   -0.2126 H   0  0  0  0  0  0  0  0  0  0  0  0
   -5.0720    1.0339    0.4361 H   0  0  0  0  0  0  0  0  0  0  0  0
   -1.9074    1.5065   -1.4295 H   0  0  0  0  0  0  0  0  0  0  0  0
   -3.3228    0.4476   -1.2205 H   0  0  0  0  0  0  0  0  0  0  0  0
   -3.6564    2.0452   -2.9647 H   0  0  0  0  0  0  0  0  0  0  0  0
   -2.8227    5.1166   -0.6458 H   0  0  0  0  0  0  0  0  0  0  0  0
  1 30  1  0  0  0  0
  1 31  1  0  0  0  0
  1 32  1  0  0  0  0
  2  1  1  6  0  0  0
  2  8  1  0  0  0  0
  2 14  1  0  0  0  0
  2  3  1  0  0  0  0
  3  4  1  0  0  0  0
  3 33  1  0  0  0  0
  3 34  1  0  0  0  0
  4  5  1  0  0  0  0
  4 35  1  0  0  0  0
  4 36  1  0  0  0  0
  5  6  1  1  0  0  0
  5  7  1  0  0  0  0
  5 29  1  0  0  0  0
  7  8  1  0  0  0  0
  7 26  1  1  0  0  0
  7 27  1  0  0  0  0
  8  9  1  6  0  0  0
  8 10  1  0  0  0  0
 10 11  1  0  0  0  0
 10 37  1  0  0  0  0
 10 38  1  0  0  0  0
 11 12  1  0  0  0  0
 11 39  1  0  0  0  0
 11 40  1  0  0  0  0
 12 13  2  0  0  0  0
 12 14  1  0  0  0  0
 13 41  1  0  0  0  0
 13 42  1  0  0  0  0
 14 15  1  6  0  0  0
 14 16  1  0  0  0  0
 16 17  1  0  0  0  0
 16 43  1  0  0  0  0
 16 44  1  0  0  0  0
 17 18  2  0  0  0  0
 17 45  1  0  0  0  0
 18 23  1  0  0  0  0
 18 19  1  0  0  0  0
 19 20  1  6  0  0  0
 19 21  1  0  0  0  0
 19 25  1  0  0  0  0
 21 22  1  0  0  0  0
 21 46  1  0  0  0  0
 21 47  1  0  0  0  0
 22 23  1  0  0  0  0
 23 24  2  0  0  0  0
 25 48  1  0  0  0  0
 26 49  1  0  0  0  0
 26 50  1  0  0  0  0
 26 51  1  0  0  0  0
 27 28  1  0  0  0  0
 27 52  1  0  0  0  0
 27 53  1  0  0  0  0
 28 54  1  0  0  0  0
 29 55  1  0  0  0  0
M  END
>  <cansmi>
OC[C@]1(C)[C@H](O)CC[C@@]2([C@H]1CCC(=C)[C@@H]2C/C=C/1\[C@H](O)COC1=O)C

>  <HBA2>
5

>  <HBD>
3

>  <logP>
1.9626

>  <TPSA>
86.99

>  <MW>
350.449

$$$$
ZINC19203131
 OpenBabel02121623173D

 79 83  0  0  1  0  0  0  0  0999 V2000
    0.6456    1.7280   -2.5152 C   0  0  0  0  0  0  0  0  0  0  0  0
    0.6518    0.1970   -2.6000 C   0  0  2  0  0  0  0  0  0  0  0  0
   -0.6848   -0.2429   -3.1979 C   0  0  0  0  0  0  0  0  0  0  0  0
   -0.7983   -1.7627   -3.2148 C   0  0  0  0  0  0  0  0  0  0  0  0
   -0.6469   -2.3346   -1.8057 C   0  0  2  0  0  0  0  0  0  0  0  0
    0.6905   -1.8984   -1.2096 C   0  0  0  0  0  0  0  0  0  0  0  0
    0.8269   -0.3802   -1.1995 C   0  0  1  0  0  0  0  0  0  0  0  0
    0.0653    0.0529   -0.5359 H   0  0  0  0  0  0  0  0  0  0  0  0
    2.1956   -0.0004   -0.6658 C   0  0  0  0  0  0  0  0  0  0  0  0
    2.2431    0.3732    0.6187 C   0  0  0  0  0  0  0  0  0  0  0  0
    3.5050    0.7729    1.2574 C   0  0  0  0  0  0  0  0  0  0  0  0
    3.4908    1.2728    2.3648 O   0  0  0  0  0  0  0  0  0  0  0  0
    4.7755    0.5041    0.4842 C   0  0  2  0  0  0  0  0  0  0  0  0
    4.9710   -0.5882    0.5585 H   0  0  0  0  0  0  0  0  0  0  0  0
    5.9968    1.1756    1.1081 C   0  0  1  0  0  0  0  0  0  0  0  0
    6.2668    0.5019    2.4653 C   0  0  0  0  0  0  0  0  0  0  0  0
    7.5457    1.0708    3.0731 C   0  0  0  0  0  0  0  0  0  0  0  0
    8.7380    0.7505    2.1811 C   0  0  1  0  0  0  0  0  0  0  0  0
    8.8771   -0.3354    2.1410 H   0  0  0  0  0  0  0  0  0  0  0  0
    8.5467    1.2746    0.7575 C   0  0  0  0  0  0  0  0  0  0  0  0
    7.1909    0.9192    0.1935 C   0  0  2  0  0  0  0  0  0  0  0  0
    7.2045   -0.1851    0.0186 H   0  0  0  0  0  0  0  0  0  0  0  0
    6.9293    1.5468   -1.1745 C   0  0  0  0  0  0  0  0  0  0  0  0
    5.7696    0.7824   -1.8319 C   0  0  0  0  0  0  0  0  0  0  0  0
    4.5187    0.8570   -0.9725 C   0  0  1  0  0  0  0  0  0  0  0  0
    3.4148   -0.0527   -1.5342 C   0  0  2  0  0  0  0  0  0  0  0  0
    3.1328    0.2991   -2.9871 C   0  0  0  0  0  0  0  0  0  0  0  0
    1.8055   -0.2685   -3.4816 C   0  0  0  0  0  0  0  0  0  0  0  0
    3.9437   -1.4937   -1.5089 C   0  0  0  0  0  0  0  0  0  0  0  0
    3.9623    2.2877   -1.0594 C   0  0  0  0  0  0  0  0  0  0  0  0
    9.6271    0.5811   -0.1099 C   0  0  0  0  0  0  0  0  0  0  0  0
    8.8355    2.7751    0.7129 C   0  0  0  0  0  0  0  0  0  0  0  0
    9.9195    1.3359    2.7401 O   0  0  0  0  0  0  0  0  0  0  0  0
    5.7635    2.6614    1.3574 C   0  0  0  0  0  0  0  0  0  0  0  0
   -0.6693   -3.8687   -1.8928 C   0  0  0  0  0  0  0  0  0  0  0  0
   -1.7831   -1.8866   -0.9274 C   0  0  0  0  0  0  0  0  0  0  0  0
   -2.9311   -2.1716   -1.2230 O   0  0  0  0  0  0  0  0  0  0  0  0
   -1.5560   -1.2384    0.0799 O   0  5  0  0  0  0  0  0  0  0  0  0
    1.5894    2.0723   -2.0923 H   0  0  0  0  0  0  0  0  0  0  0  0
    0.5207    2.1467   -3.5138 H   0  0  0  0  0  0  0  0  0  0  0  0
   -0.1776    2.0534   -1.8792 H   0  0  0  0  0  0  0  0  0  0  0  0
   -1.5018    0.1991   -2.6316 H   0  0  0  0  0  0  0  0  0  0  0  0
   -0.7422    0.1284   -4.2285 H   0  0  0  0  0  0  0  0  0  0  0  0
   -1.7739   -2.0497   -3.6162 H   0  0  0  0  0  0  0  0  0  0  0  0
   -0.0202   -2.1807   -3.8586 H   0  0  0  0  0  0  0  0  0  0  0  0
    0.7656   -2.2770   -0.1853 H   0  0  0  0  0  0  0  0  0  0  0  0
    1.4905   -2.3449   -1.8038 H   0  0  0  0  0  0  0  0  0  0  0  0
    1.3291    0.3819    1.1968 H   0  0  0  0  0  0  0  0  0  0  0  0
    5.4279    0.6968    3.1338 H   0  0  0  0  0  0  0  0  0  0  0  0
    6.3728   -0.5717    2.3148 H   0  0  0  0  0  0  0  0  0  0  0  0
    7.4651    2.1408    3.2332 H   0  0  0  0  0  0  0  0  0  0  0  0
    7.7039    0.5997    4.0543 H   0  0  0  0  0  0  0  0  0  0  0  0
    6.6826    2.5986   -1.0936 H   0  0  0  0  0  0  0  0  0  0  0  0
    7.8089    1.4405   -1.8139 H   0  0  0  0  0  0  0  0  0  0  0  0
    5.5698    1.2324   -2.8096 H   0  0  0  0  0  0  0  0  0  0  0  0
    6.0904   -0.2480   -1.9838 H   0  0  0  0  0  0  0  0  0  0  0  0
    3.1728    1.3627   -3.1865 H   0  0  0  0  0  0  0  0  0  0  0  0
    3.9326   -0.1572   -3.6049 H   0  0  0  0  0  0  0  0  0  0  0  0
    1.8481   -1.3584   -3.4851 H   0  0  0  0  0  0  0  0  0  0  0  0
    1.6326    0.0715   -4.5080 H   0  0  0  0  0  0  0  0  0  0  0  0
    3.1774   -2.1687   -1.8900 H   0  0  0  0  0  0  0  0  0  0  0  0
    4.8340   -1.5650   -2.1336 H   0  0  0  0  0  0  0  0  0  0  0  0
    4.1952   -1.7705   -0.4850 H   0  0  0  0  0  0  0  0  0  0  0  0
    4.7333    2.9963   -0.7568 H   0  0  0  0  0  0  0  0  0  0  0  0
    3.6583    2.4976   -2.0849 H   0  0  0  0  0  0  0  0  0  0  0  0
    3.1011    2.3834   -0.3983 H   0  0  0  0  0  0  0  0  0  0  0  0
    9.4879   -0.4992   -0.0686 H   0  0  0  0  0  0  0  0  0  0  0  0
    9.5371    0.9199   -1.1420 H   0  0  0  0  0  0  0  0  0  0  0  0
   10.6165    0.8347    0.2707 H   0  0  0  0  0  0  0  0  0  0  0  0
    9.8913    2.9483    0.9212 H   0  0  0  0  0  0  0  0  0  0  0  0
    8.5919    3.1627   -0.2763 H   0  0  0  0  0  0  0  0  0  0  0  0
    8.2291    3.2842    1.4620 H   0  0  0  0  0  0  0  0  0  0  0  0
   10.1330    1.0190    3.6284 H   0  0  0  0  0  0  0  0  0  0  0  0
    4.7879    2.8030    1.8225 H   0  0  0  0  0  0  0  0  0  0  0  0
    6.5404    3.0452    2.0186 H   0  0  0  0  0  0  0  0  0  0  0  0
    5.7954    3.1983    0.4094 H   0  0  0  0  0  0  0  0  0  0  0  0
    0.1537   -4.2090   -2.5213 H   0  0  0  0  0  0  0  0  0  0  0  0
   -0.5621   -4.2909   -0.8937 H   0  0  0  0  0  0  0  0  0  0  0  0
   -1.6154   -4.1942   -2.3252 H   0  0  0  0  0  0  0  0  0  0  0  0
  1 39  1  0  0  0  0
  1 40  1  0  0  0  0
  1 41  1  0  0  0  0
  2  1  1  1  0  0  0
  2  7  1  0  0  0  0
  2 28  1  0  0  0  0
  2  3  1  0  0  0  0
  3  4  1  0  0  0  0
  3 42  1  0  0  0  0
  3 43  1  0  0  0  0
  4  5  1  0  0  0  0
  4 44  1  0  0  0  0
  4 45  1  0  0  0  0
  5  6  1  0  0  0  0
  5 35  1  6  0  0  0
  5 36  1  0  0  0  0
  6  7  1  0  0  0  0
  6 46  1  0  0  0  0
  6 47  1  0  0  0  0
  7  8  1  1  0  0  0
  7  9  1  0  0  0  0
  9 26  1  0  0  0  0
  9 10  2  0  0  0  0
 10 11  1  0  0  0  0
 10 48  1  0  0  0  0
 11 12  2  0  0  0  0
 11 13  1  0  0  0  0
 13 14  1  1  0  0  0
 13 25  1  0  0  0  0
 13 15  1  0  0  0  0
 15 21  1  0  0  0  0
 15 16  1  0  0  0  0
 15 34  1  1  0  0  0
 16 17  1  0  0  0  0
 16 49  1  0  0  0  0
 16 50  1  0  0  0  0
 17 18  1  0  0  0  0
 17 51  1  0  0  0  0
 17 52  1  0  0  0  0
 18 19  1  6  0  0  0
 18 20  1  0  0  0  0
 18 33  1  0  0  0  0
 20 21  1  0  0  0  0
 20 31  1  0  0  0  0
 20 32  1  0  0  0  0
 21 22  1  6  0  0  0
 21 23  1  0  0  0  0
 23 24  1  0  0  0  0
 23 53  1  0  0  0  0
 23 54  1  0  0  0  0
 24 25  1  0  0  0  0
 24 55  1  0  0  0  0
 24 56  1  0  0  0  0
 25 26  1  0  0  0  0
 25 30  1  6  0  0  0
 26 27  1  0  0  0  0
 26 29  1  1  0  0  0
 27 28  1  0  0  0  0
 27 57  1  0  0  0  0
 27 58  1  0  0  0  0
 28 59  1  0  0  0  0
 28 60  1  0  0  0  0
 29 61  1  0  0  0  0
 29 62  1  0  0  0  0
 29 63  1  0  0  0  0
 30 64  1  0  0  0  0
 30 65  1  0  0  0  0
 30 66  1  0  0  0  0
 31 67  1  0  0  0  0
 31 68  1  0  0  0  0
 31 69  1  0  0  0  0
 32 70  1  0  0  0  0
 32 71  1  0  0  0  0
 32 72  1  0  0  0  0
 33 73  1  0  0  0  0
 34 74  1  0  0  0  0
 34 75  1  0  0  0  0
 34 76  1  0  0  0  0
 35 77  1  0  0  0  0
 35 78  1  0  0  0  0
 35 79  1  0  0  0  0
 36 37  2  0  0  0  0
 36 38  1  0  0  0  0
M  CHG  1  38  -1
M  END
>  <cansmi>
O=C1C=C2[C@@H]3C[C@](C)(CC[C@]3(C)CC[C@]2([C@]2([C@H]1[C@@]1(C)CC[C@@H](C([C@@H]1CC2)(C)C)O)C)C)C(=O)[O-]

>  <HBA2>
4

>  <HBD>
1

>  <logP>
5.0779

>  <TPSA>
77.43

>  <MW>
469.676

$$$$
ZINC04349038
 OpenBabel02121623173D

 49 52  0  0  1  0  0  0  0  0999 V2000
   -0.0167    1.3795    0.0096 C   0  0  0  0  0  0  0  0  0  0  0  0
    1.1683    2.0940    0.0021 C   0  0  0  0  0  0  0  0  0  0  0  0
    2.3774    1.4303   -0.0130 C   0  0  0  0  0  0  0  0  0  0  0  0
    2.4038    0.0341   -0.0208 C   0  0  0  0  0  0  0  0  0  0  0  0
    1.2040   -0.6806   -0.0131 C   0  0  0  0  0  0  0  0  0  0  0  0
    0.0021   -0.0041    0.0020 C   0  0  0  0  0  0  0  0  0  0  0  0
    3.6945   -0.6834   -0.0374 C   0  0  0  0  0  0  0  0  0  0  0  0
    3.6864   -2.0423   -0.0503 C   0  0  0  0  0  0  0  0  0  0  0  0
    4.9141   -2.7479   -0.0669 C   0  0  0  0  0  0  0  0  0  0  0  0
    4.9443   -3.9678   -0.0790 O   0  0  0  0  0  0  0  0  0  0  0  0
    6.1530   -1.9519   -0.0693 C   0  0  0  0  0  0  0  0  0  0  0  0
    6.0489   -0.5496   -0.0552 C   0  0  0  0  0  0  0  0  0  0  0  0
    4.8301    0.0318   -0.0449 O   0  0  0  0  0  0  0  0  0  0  0  0
    7.2014    0.2203   -0.0572 C   0  0  0  0  0  0  0  0  0  0  0  0
    8.4452   -0.3910   -0.0736 C   0  0  0  0  0  0  0  0  0  0  0  0
    8.5528   -1.7804   -0.0881 C   0  0  0  0  0  0  0  0  0  0  0  0
    7.4110   -2.5656   -0.0858 C   0  0  0  0  0  0  0  0  0  0  0  0
    7.5117   -3.9201   -0.0990 O   0  0  0  0  0  0  0  0  0  0  0  0
    9.7814   -2.3670   -0.1045 O   0  0  0  0  0  0  0  0  0  0  0  0
    9.5696    0.3710   -0.0759 O   0  0  0  0  0  0  0  0  0  0  0  0
    9.3924    1.7889   -0.0610 C   0  0  1  0  0  0  0  0  0  0  0  0
    8.7696    2.0685    0.7888 H   0  0  0  0  0  0  0  0  0  0  0  0
   10.7568    2.4728    0.0591 C   0  0  1  0  0  0  0  0  0  0  0  0
   11.2606    2.1247    0.9608 H   0  0  0  0  0  0  0  0  0  0  0  0
   11.6042    2.1232   -1.1681 C   0  0  1  0  0  0  0  0  0  0  0  0
   11.7833    1.0483   -1.1933 H   0  0  0  0  0  0  0  0  0  0  0  0
   10.8509    2.5469   -2.4327 C   0  0  1  0  0  0  0  0  0  0  0  0
   11.4220    2.2519   -3.3130 H   0  0  0  0  0  0  0  0  0  0  0  0
    9.4828    1.8602   -2.4565 C   0  0  1  0  0  0  0  0  0  0  0  0
    9.6192    0.7796   -2.4992 H   0  0  0  0  0  0  0  0  0  0  0  0
    8.7584    2.2027   -1.2730 O   0  0  0  0  0  0  0  0  0  0  0  0
    8.7119    2.3177   -3.6679 C   0  0  0  0  0  0  0  0  0  0  0  0
    9.1131    2.0420   -4.7857 O   0  0  0  0  0  0  0  0  0  0  0  0
    7.6870    2.9636   -3.5301 O   0  5  0  0  0  0  0  0  0  0  0  0
   10.6747    3.9650   -2.4310 O   0  0  0  0  0  0  0  0  0  0  0  0
   12.8530    2.8144   -1.0993 O   0  0  0  0  0  0  0  0  0  0  0  0
   10.5768    3.8887    0.1290 O   0  0  0  0  0  0  0  0  0  0  0  0
   -0.9606    1.9042    0.0260 H   0  0  0  0  0  0  0  0  0  0  0  0
    1.1464    3.1737    0.0078 H   0  0  0  0  0  0  0  0  0  0  0  0
    3.3016    1.9892   -0.0192 H   0  0  0  0  0  0  0  0  0  0  0  0
    1.2173   -1.7605   -0.0194 H   0  0  0  0  0  0  0  0  0  0  0  0
   -0.9265   -0.5555    0.0079 H   0  0  0  0  0  0  0  0  0  0  0  0
    2.7501   -2.5805   -0.0475 H   0  0  0  0  0  0  0  0  0  0  0  0
    7.1302    1.2979   -0.0464 H   0  0  0  0  0  0  0  0  0  0  0  0
    7.5333   -4.3043   -0.9861 H   0  0  0  0  0  0  0  0  0  0  0  0
   10.1439   -2.5451    0.7741 H   0  0  0  0  0  0  0  0  0  0  0  0
   10.2039    4.3038   -3.2047 H   0  0  0  0  0  0  0  0  0  0  0  0
   13.4413    2.6390   -1.8464 H   0  0  0  0  0  0  0  0  0  0  0  0
   10.0445    4.1808    0.8816 H   0  0  0  0  0  0  0  0  0  0  0  0
  1  6  2  0  0  0  0
  1  2  1  0  0  0  0
  1 38  1  0  0  0  0
  2  3  2  0  0  0  0
  2 39  1  0  0  0  0
  3  4  1  0  0  0  0
  3 40  1  0  0  0  0
  4  5  2  0  0  0  0
  4  7  1  0  0  0  0
  5  6  1  0  0  0  0
  5 41  1  0  0  0  0
  6 42  1  0  0  0  0
  7 13  1  0  0  0  0
  7  8  2  0  0  0  0
  8  9  1  0  0  0  0
  8 43  1  0  0  0  0
  9 10  2  0  0  0  0
  9 11  1  0  0  0  0
 11 17  2  0  0  0  0
 11 12  1  0  0  0  0
 12 13  1  0  0  0  0
 12 14  2  0  0  0  0
 14 15  1  0  0  0  0
 14 44  1  0  0  0  0
 15 16  2  0  0  0  0
 15 20  1  0  0  0  0
 16 17  1  0  0  0  0
 16 19  1  0  0  0  0
 17 18  1  0  0  0  0
 18 45  1  0  0  0  0
 19 46  1  0  0  0  0
 20 21  1  0  0  0  0
 21 22  1  1  0  0  0
 21 31  1  0  0  0  0
 21 23  1  0  0  0  0
 23 24  1  1  0  0  0
 23 25  1  0  0  0  0
 23 37  1  0  0  0  0
 25 26  1  6  0  0  0
 25 27  1  0  0  0  0
 25 36  1  0  0  0  0
 27 28  1  6  0  0  0
 27 29  1  0  0  0  0
 27 35  1  0  0  0  0
 29 30  1  6  0  0  0
 29 31  1  0  0  0  0
 29 32  1  0  0  0  0
 32 33  2  0  0  0  0
 32 34  1  0  0  0  0
 35 47  1  0  0  0  0
 36 48  1  0  0  0  0
 37 49  1  0  0  0  0
M  CHG  1  34  -1
M  END
>  <cansmi>
[O-]C(=O)[C@@H]1O[C@@H](Oc2cc3oc(cc(=O)c3c(c2O)O)c2ccccc2)[C@@H]([C@@H]([C@@H]1O)O)O

>  <HBA2>
11

>  <HBD>
5

>  <logP>
-1.1925

>  <TPSA>
189.95

>  <MW>
445.353

$$$$
ZINC04349845
 OpenBabel02121623173D

 55 57  0  0  1  0  0  0  0  0999 V2000
   -0.1833    1.1932   -0.1210 C   0  0  0  0  0  0  0  0  0  0  0  0
   -0.0512   -0.3191   -0.2981 C   0  0  2  0  0  0  0  0  0  0  0  0
   -1.4376   -0.9334   -0.4993 C   0  0  0  0  0  0  0  0  0  0  0  0
   -2.2472   -0.8413    0.7931 C   0  0  0  0  0  0  0  0  0  0  0  0
   -1.5494   -1.6387    1.8888 C   0  0  1  0  0  0  0  0  0  0  0  0
   -1.4873   -2.6893    1.5892 H   0  0  0  0  0  0  0  0  0  0  0  0
   -0.1379   -1.1111    2.1449 C   0  0  1  0  0  0  0  0  0  0  0  0
    0.6660   -0.9852    0.8662 C   0  0  2  0  0  0  0  0  0  0  0  0
    0.8914   -2.0287    0.5320 H   0  0  0  0  0  0  0  0  0  0  0  0
    2.0237   -0.3287    1.1180 C   0  0  0  0  0  0  0  0  0  0  0  0
    2.9233   -0.5666   -0.1034 C   0  0  0  0  0  0  0  0  0  0  0  0
    2.1911   -0.1021   -1.3407 C   0  0  0  0  0  0  0  0  0  0  0  0
    2.7770    0.6977   -2.2016 C   0  0  0  0  0  0  0  0  0  0  0  0
    0.7754   -0.5774   -1.5754 C   0  0  2  0  0  0  0  0  0  0  0  0
    0.7729   -1.6416   -1.7972 H   0  0  0  0  0  0  0  0  0  0  0  0
    0.1723    0.2022   -2.7451 C   0  0  0  0  0  0  0  0  0  0  0  0
    0.8386   -0.2222   -4.0285 C   0  0  0  0  0  0  0  0  0  0  0  0
    0.1015   -0.6441   -5.0530 C   0  0  0  0  0  0  0  0  0  0  0  0
   -1.4137   -0.7599   -5.1168 C   0  0  1  0  0  0  0  0  0  0  0  0
   -1.8806    0.2144   -4.9727 H   0  0  0  0  0  0  0  0  0  0  0  0
   -1.6659   -1.2791   -6.5484 C   0  0  0  0  0  0  0  0  0  0  0  0
   -0.4433   -1.0075   -7.2540 O   0  0  0  0  0  0  0  0  0  0  0  0
    0.5772   -1.0949   -6.3760 C   0  0  0  0  0  0  0  0  0  0  0  0
    1.7000   -1.4832   -6.6321 O   0  0  0  0  0  0  0  0  0  0  0  0
   -1.8898   -1.6943   -4.1461 O   0  0  0  0  0  0  0  0  0  0  0  0
   -0.2104    0.2040    2.9202 C   0  0  0  0  0  0  0  0  0  0  0  0
    0.5587   -2.1465    3.0587 C   0  0  0  0  0  0  0  0  0  0  0  0
   -0.1703   -2.2693    4.2816 O   0  0  0  0  0  0  0  0  0  0  0  0
   -2.3096   -1.5524    3.0993 O   0  0  0  0  0  0  0  0  0  0  0  0
    0.8030    1.6273    0.0430 H   0  0  0  0  0  0  0  0  0  0  0  0
   -0.6265    1.6267   -1.0176 H   0  0  0  0  0  0  0  0  0  0  0  0
   -0.8206    1.4042    0.7377 H   0  0  0  0  0  0  0  0  0  0  0  0
   -1.9727   -0.3990   -1.2851 H   0  0  0  0  0  0  0  0  0  0  0  0
   -1.3322   -1.9809   -0.7857 H   0  0  0  0  0  0  0  0  0  0  0  0
   -2.3764    0.1945    1.0929 H   0  0  0  0  0  0  0  0  0  0  0  0
   -3.2405   -1.2728    0.6157 H   0  0  0  0  0  0  0  0  0  0  0  0
    1.9291    0.7379    1.2913 H   0  0  0  0  0  0  0  0  0  0  0  0
    2.5081   -0.7817    1.9864 H   0  0  0  0  0  0  0  0  0  0  0  0
    3.8486   -0.0023    0.0129 H   0  0  0  0  0  0  0  0  0  0  0  0
    3.1497   -1.6298   -0.1850 H   0  0  0  0  0  0  0  0  0  0  0  0
    3.8225    0.9428   -2.0859 H   0  0  0  0  0  0  0  0  0  0  0  0
    2.2135    1.1104   -3.0253 H   0  0  0  0  0  0  0  0  0  0  0  0
   -0.8966   -0.0027   -2.8057 H   0  0  0  0  0  0  0  0  0  0  0  0
    0.3294    1.2696   -2.5899 H   0  0  0  0  0  0  0  0  0  0  0  0
    1.9143   -0.1840   -4.1167 H   0  0  0  0  0  0  0  0  0  0  0  0
   -1.8666   -2.3504   -6.5343 H   0  0  0  0  0  0  0  0  0  0  0  0
   -2.4965   -0.7420   -7.0066 H   0  0  0  0  0  0  0  0  0  0  0  0
   -2.8504   -1.8053   -4.1451 H   0  0  0  0  0  0  0  0  0  0  0  0
   -0.6217    0.0186    3.9124 H   0  0  0  0  0  0  0  0  0  0  0  0
    0.7902    0.6257    3.0146 H   0  0  0  0  0  0  0  0  0  0  0  0
   -0.8516    0.9055    2.3864 H   0  0  0  0  0  0  0  0  0  0  0  0
    0.5894   -3.1128    2.5554 H   0  0  0  0  0  0  0  0  0  0  0  0
    1.5751   -1.8161    3.2732 H   0  0  0  0  0  0  0  0  0  0  0  0
    0.2105   -2.9035    4.9045 H   0  0  0  0  0  0  0  0  0  0  0  0
   -3.2097   -1.8978    3.0239 H   0  0  0  0  0  0  0  0  0  0  0  0
  1 30  1  0  0  0  0
  1 31  1  0  0  0  0
  1 32  1  0  0  0  0
  2  1  1  1  0  0  0
  2  8  1  0  0  0  0
  2 14  1  0  0  0  0
  2  3  1  0  0  0  0
  3  4  1  0  0  0  0
  3 33  1  0  0  0  0
  3 34  1  0  0  0  0
  4  5  1  0  0  0  0
  4 35  1  0  0  0  0
  4 36  1  0  0  0  0
  5  6  1  6  0  0  0
  5  7  1  0  0  0  0
  5 29  1  0  0  0  0
  7  8  1  0  0  0  0
  7 26  1  1  0  0  0
  7 27  1  0  0  0  0
  8  9  1  6  0  0  0
  8 10  1  0  0  0  0
 10 11  1  0  0  0  0
 10 37  1  0  0  0  0
 10 38  1  0  0  0  0
 11 12  1  0  0  0  0
 11 39  1  0  0  0  0
 11 40  1  0  0  0  0
 12 13  2  0  0  0  0
 12 14  1  0  0  0  0
 13 41  1  0  0  0  0
 13 42  1  0  0  0  0
 14 15  1  6  0  0  0
 14 16  1  0  0  0  0
 16 17  1  0  0  0  0
 16 43  1  0  0  0  0
 16 44  1  0  0  0  0
 17 18  2  0  0  0  0
 17 45  1  0  0  0  0
 18 23  1  0  0  0  0
 18 19  1  0  0  0  0
 19 20  1  1  0  0  0
 19 21  1  0  0  0  0
 19 25  1  0  0  0  0
 21 22  1  0  0  0  0
 21 46  1  0  0  0  0
 21 47  1  0  0  0  0
 22 23  1  0  0  0  0
 23 24  2  0  0  0  0
 25 48  1  0  0  0  0
 26 49  1  0  0  0  0
 26 50  1  0  0  0  0
 26 51  1  0  0  0  0
 27 28  1  0  0  0  0
 27 52  1  0  0  0  0
 27 53  1  0  0  0  0
 28 54  1  0  0  0  0
 29 55  1  0  0  0  0
M  END
>  <cansmi>
OC[C@]1(C)[C@@H](O)CC[C@]2([C@H]1CCC(=C)[C@@H]2C/C=C/1\[C@H](O)COC1=O)C

>  <HBA2>
5

>  <HBD>
3

>  <logP>
1.9626

>  <TPSA>
86.99

>  <MW>
350.449

$$$$
ZINC04577167
 OpenBabel02121623173D

 68 72  0  0  1  0  0  0  0  0999 V2000
   -1.8408   -9.9762   -2.0562 C   0  0  0  0  0  0  0  0  0  0  0  0
   -1.7826   -8.4521   -1.9352 C   0  0  1  0  0  0  0  0  0  0  0  0
   -2.6888   -8.0563   -1.4768 H   0  0  0  0  0  0  0  0  0  0  0  0
   -0.5276   -7.9957   -1.1842 C   0  0  2  0  0  0  0  0  0  0  0  0
    0.3768   -8.3883   -1.6488 H   0  0  0  0  0  0  0  0  0  0  0  0
   -0.3953   -7.9535    0.3363 C   0  0  0  0  0  0  0  0  0  0  0  0
    0.6738   -6.7999    0.4537 C   0  0  0  0  0  0  0  0  0  0  0  0
    0.0613   -5.7692   -0.4659 C   0  0  2  0  0  0  0  0  0  0  0  0
   -0.7980   -5.4940    0.1456 H   0  0  0  0  0  0  0  0  0  0  0  0
   -0.7420   -6.4722   -1.5115 C   0  0  2  0  0  0  0  0  0  0  0  0
   -2.1686   -5.9359   -1.2416 C   0  0  0  0  0  0  0  0  0  0  0  0
   -1.9832   -4.4123   -1.0156 C   0  0  0  0  0  0  0  0  0  0  0  0
   -0.7046   -3.9144   -1.7079 C   0  0  2  0  0  0  0  0  0  0  0  0
   -0.6479   -4.3188   -2.7185 H   0  0  0  0  0  0  0  0  0  0  0  0
    0.5061   -4.4288   -0.8578 C   0  0  2  0  0  0  0  0  0  0  0  0
    0.5871   -3.8036    0.0313 H   0  0  0  0  0  0  0  0  0  0  0  0
    1.7423   -4.2450   -1.7101 C   0  0  0  0  0  0  0  0  0  0  0  0
    1.8492   -2.7598   -1.9830 C   0  0  0  0  0  0  0  0  0  0  0  0
    0.8295   -1.9634   -1.9418 C   0  0  0  0  0  0  0  0  0  0  0  0
   -0.6118   -2.3962   -1.7388 C   0  0  2  0  0  0  0  0  0  0  0  0
   -1.0613   -1.7703   -0.4108 C   0  0  0  0  0  0  0  0  0  0  0  0
   -0.9514   -0.2476   -0.5511 C   0  0  0  0  0  0  0  0  0  0  0  0
    0.4908    0.1813   -0.8062 C   0  0  1  0  0  0  0  0  0  0  0  0
    1.1101   -0.1252    0.0368 H   0  0  0  0  0  0  0  0  0  0  0  0
    1.0306   -0.4634   -2.0909 C   0  0  0  0  0  0  0  0  0  0  0  0
    1.9328    2.1125   -1.0381 C   0  0  0  0  0  0  0  0  0  0  0  0
   -0.2478    2.0965   -2.0904 C   0  0  0  0  0  0  0  0  0  0  0  0
   -1.4739   -1.8546   -2.8809 C   0  0  0  0  0  0  0  0  0  0  0  0
   -0.6448   -6.5880   -3.0060 C   0  0  0  0  0  0  0  0  0  0  0  0
   -2.7570   -7.4185   -3.9405 C   0  0  0  0  0  0  0  0  0  0  0  0
   -1.8545  -10.4194   -1.0604 H   0  0  0  0  0  0  0  0  0  0  0  0
   -2.7440  -10.2638   -2.5943 H   0  0  0  0  0  0  0  0  0  0  0  0
   -0.9653  -10.3312   -2.5999 H   0  0  0  0  0  0  0  0  0  0  0  0
   -1.3350   -7.6733    0.8123 H   0  0  0  0  0  0  0  0  0  0  0  0
   -0.0162   -8.8960    0.7315 H   0  0  0  0  0  0  0  0  0  0  0  0
    1.6464   -7.1286    0.0877 H   0  0  0  0  0  0  0  0  0  0  0  0
    0.7435   -6.4269    1.4755 H   0  0  0  0  0  0  0  0  0  0  0  0
   -2.8109   -6.1161   -2.1036 H   0  0  0  0  0  0  0  0  0  0  0  0
   -2.5884   -6.4055   -0.3520 H   0  0  0  0  0  0  0  0  0  0  0  0
   -2.8431   -3.8812   -1.4239 H   0  0  0  0  0  0  0  0  0  0  0  0
   -1.9129   -4.2135    0.0538 H   0  0  0  0  0  0  0  0  0  0  0  0
    1.6359   -4.7914   -2.6473 H   0  0  0  0  0  0  0  0  0  0  0  0
    2.6240   -4.5913   -1.1710 H   0  0  0  0  0  0  0  0  0  0  0  0
    2.8180   -2.3468   -2.2219 H   0  0  0  0  0  0  0  0  0  0  0  0
   -2.0944   -2.0483   -0.2024 H   0  0  0  0  0  0  0  0  0  0  0  0
   -0.4160   -2.1151    0.3972 H   0  0  0  0  0  0  0  0  0  0  0  0
   -1.3069    0.2222    0.3660 H   0  0  0  0  0  0  0  0  0  0  0  0
   -1.5741    0.0802   -1.3836 H   0  0  0  0  0  0  0  0  0  0  0  0
    0.4756   -0.0964   -2.9543 H   0  0  0  0  0  0  0  0  0  0  0  0
    2.0911   -0.2384   -2.2044 H   0  0  0  0  0  0  0  0  0  0  0  0
    2.4064    1.6644   -1.9117 H   0  0  0  0  0  0  0  0  0  0  0  0
    1.9435    3.1980   -1.1358 H   0  0  0  0  0  0  0  0  0  0  0  0
    2.4790    1.8230   -0.1403 H   0  0  0  0  0  0  0  0  0  0  0  0
   -1.2869    1.7954   -1.9576 H   0  0  0  0  0  0  0  0  0  0  0  0
   -0.1909    3.1824   -2.1657 H   0  0  0  0  0  0  0  0  0  0  0  0
    0.1468    1.6479   -3.0021 H   0  0  0  0  0  0  0  0  0  0  0  0
   -1.1075   -2.2462   -3.8299 H   0  0  0  0  0  0  0  0  0  0  0  0
   -2.5082   -2.1657   -2.7345 H   0  0  0  0  0  0  0  0  0  0  0  0
   -1.4200   -0.7660   -2.8920 H   0  0  0  0  0  0  0  0  0  0  0  0
   -1.0535   -5.7032   -3.4940 H   0  0  0  0  0  0  0  0  0  0  0  0
    0.3845   -6.7644   -3.3183 H   0  0  0  0  0  0  0  0  0  0  0  0
   -3.3960   -6.8823   -3.2388 H   0  0  0  0  0  0  0  0  0  0  0  0
   -2.5328   -6.7759   -4.7919 H   0  0  0  0  0  0  0  0  0  0  0  0
   -3.2705   -8.3152   -4.2873 H   0  0  0  0  0  0  0  0  0  0  0  0
    0.5328    1.6547   -0.9155 N   0  3  0  0  0  0  0  0  0  0  0  0
    0.1211    2.0639   -0.0686 H   0  0  0  0  0  0  0  0  0  0  0  0
   -1.4921   -7.8027   -3.2635 N   0  3  2  0  0  0  0  0  0  0  0  0
   -0.9782   -8.4597   -3.8622 H   0  0  0  0  0  0  0  0  0  0  0  0
  1  2  1  0  0  0  0
  1 31  1  0  0  0  0
  1 32  1  0  0  0  0
  1 33  1  0  0  0  0
  2  3  1  1  0  0  0
  2  4  1  0  0  0  0
  2 67  1  0  0  0  0
  4  5  1  6  0  0  0
  4 10  1  0  0  0  0
  4  6  1  0  0  0  0
  6  7  1  0  0  0  0
  6 34  1  0  0  0  0
  6 35  1  0  0  0  0
  7  8  1  0  0  0  0
  7 36  1  0  0  0  0
  7 37  1  0  0  0  0
  8  9  1  1  0  0  0
  8 15  1  0  0  0  0
  8 10  1  0  0  0  0
 10 11  1  1  0  0  0
 10 29  1  0  0  0  0
 11 12  1  0  0  0  0
 11 38  1  0  0  0  0
 11 39  1  0  0  0  0
 12 13  1  0  0  0  0
 12 40  1  0  0  0  0
 12 41  1  0  0  0  0
 13 14  1  6  0  0  0
 13 20  1  0  0  0  0
 13 15  1  0  0  0  0
 15 16  1  1  0  0  0
 15 17  1  0  0  0  0
 17 18  1  0  0  0  0
 17 42  1  0  0  0  0
 17 43  1  0  0  0  0
 18 19  2  0  0  0  0
 18 44  1  0  0  0  0
 19 25  1  0  0  0  0
 19 20  1  0  0  0  0
 20 21  1  0  0  0  0
 20 28  1  6  0  0  0
 21 22  1  0  0  0  0
 21 45  1  0  0  0  0
 21 46  1  0  0  0  0
 22 23  1  0  0  0  0
 22 47  1  0  0  0  0
 22 48  1  0  0  0  0
 23 24  1  1  0  0  0
 23 25  1  0  0  0  0
 23 65  1  0  0  0  0
 25 49  1  0  0  0  0
 25 50  1  0  0  0  0
 26 51  1  0  0  0  0
 26 52  1  0  0  0  0
 26 53  1  0  0  0  0
 26 65  1  0  0  0  0
 27 54  1  0  0  0  0
 27 55  1  0  0  0  0
 27 56  1  0  0  0  0
 27 65  1  0  0  0  0
 28 57  1  0  0  0  0
 28 58  1  0  0  0  0
 28 59  1  0  0  0  0
 29 60  1  0  0  0  0
 29 61  1  0  0  0  0
 29 67  1  0  0  0  0
 30 62  1  0  0  0  0
 30 63  1  0  0  0  0
 30 64  1  0  0  0  0
 30 67  1  0  0  0  0
 65 66  1  0  0  0  0
 67 68  1  6  0  0  0
M  CHG  2  65   1  67   1
M  END
>  <cansmi>
C[NH+]([C@H]1CC[C@]2(C(=CC[C@H]3[C@H]2CC[C@]24[C@H]3CC[C@H]4[C@@H]([N@H+](C2)C)C)C1)C)C

>  <HBA2>
0

>  <HBD>
2

>  <logP>
3.5446

>  <TPSA>
8.88

>  <MW>
358.604

$$$$
ZINC18847046
 OpenBabel02121623173D

 29 31  0  0  0  0  0  0  0  0999 V2000
   -0.0184    1.5028    0.0103 C   0  0  0  0  0  0  0  0  0  0  0  0
    0.0021   -0.0041    0.0020 C   0  0  0  0  0  0  0  0  0  0  0  0
    0.0057   -0.6865   -1.2084 C   0  0  0  0  0  0  0  0  0  0  0  0
    0.0254   -2.0919   -1.1857 C   0  0  0  0  0  0  0  0  0  0  0  0
    0.0408   -2.7431    0.0474 C   0  0  0  0  0  0  0  0  0  0  0  0
    0.0361   -1.9836    1.1979 C   0  0  0  0  0  0  0  0  0  0  0  0
    0.0219   -0.6634    1.1422 N   0  3  0  0  0  0  0  0  0  0  0  0
    0.0239   -2.5347   -2.5884 C   0  0  0  0  0  0  0  0  0  0  0  0
    0.0375   -3.7874   -3.2002 C   0  0  0  0  0  0  0  0  0  0  0  0
    0.0309   -3.8808   -4.5734 C   0  0  0  0  0  0  0  0  0  0  0  0
    0.0111   -2.7283   -5.3537 C   0  0  0  0  0  0  0  0  0  0  0  0
   -0.0026   -1.4801   -4.7588 C   0  0  0  0  0  0  0  0  0  0  0  0
    0.0034   -1.3698   -3.3723 C   0  0  0  0  0  0  0  0  0  0  0  0
   -0.0072   -0.2742   -2.5278 N   0  0  0  0  0  0  0  0  0  0  0  0
   -0.0219    0.6508   -2.8196 H   0  0  0  0  0  0  0  0  0  0  0  0
    0.0057   -2.8305   -6.7086 O   0  0  0  0  0  0  0  0  0  0  0  0
    0.0210   -4.1488   -7.2598 C   0  0  0  0  0  0  0  0  0  0  0  0
    1.0042    1.8801    0.0026 H   0  0  0  0  0  0  0  0  0  0  0  0
   -0.5455    1.8639   -0.8728 H   0  0  0  0  0  0  0  0  0  0  0  0
   -0.5286    1.8543    0.9071 H   0  0  0  0  0  0  0  0  0  0  0  0
    0.0557   -3.8217    0.1000 H   0  0  0  0  0  0  0  0  0  0  0  0
    0.0478   -2.4751    2.1595 H   0  0  0  0  0  0  0  0  0  0  0  0
    0.0536   -4.6834   -2.5974 H   0  0  0  0  0  0  0  0  0  0  0  0
    0.0415   -4.8513   -5.0470 H   0  0  0  0  0  0  0  0  0  0  0  0
   -0.0176   -0.5905   -5.3710 H   0  0  0  0  0  0  0  0  0  0  0  0
    0.9199   -4.6699   -6.9305 H   0  0  0  0  0  0  0  0  0  0  0  0
   -0.8598   -4.6944   -6.9214 H   0  0  0  0  0  0  0  0  0  0  0  0
    0.0146   -4.0877   -8.3481 H   0  0  0  0  0  0  0  0  0  0  0  0
    0.0229   -0.1610    1.9720 H   0  0  0  0  0  0  0  0  0  0  0  0
  1  2  1  0  0  0  0
  1 18  1  0  0  0  0
  1 19  1  0  0  0  0
  1 20  1  0  0  0  0
  2  7  2  0  0  0  0
  2  3  1  0  0  0  0
  3 14  1  0  0  0  0
  3  4  2  0  0  0  0
  4  5  1  0  0  0  0
  4  8  1  0  0  0  0
  5  6  2  0  0  0  0
  5 21  1  0  0  0  0
  6  7  1  0  0  0  0
  6 22  1  0  0  0  0
  7 29  1  0  0  0  0
  8 13  2  0  0  0  0
  8  9  1  0  0  0  0
  9 10  2  0  0  0  0
  9 23  1  0  0  0  0
 10 11  1  0  0  0  0
 10 24  1  0  0  0  0
 11 12  2  0  0  0  0
 11 16  1  0  0  0  0
 12 13  1  0  0  0  0
 12 25  1  0  0  0  0
 13 14  1  0  0  0  0
 14 15  1  0  0  0  0
 16 17  1  0  0  0  0
 17 26  1  0  0  0  0
 17 27  1  0  0  0  0
 17 28  1  0  0  0  0
M  CHG  1   7   1
M  END
>  <cansmi>
COc1ccc2c(c1)[nH]c1c2cc[nH+]c1C

>  <HBA2>
1

>  <HBD>
2

>  <logP>
2.4522

>  <TPSA>
39.16

>  <MW>
213.255

$$$$
ZINC02138728
 OpenBabel02121623173D

 42 43  0  0  1  0  0  0  0  0999 V2000
   -0.0169    1.3952    0.0097 C   0  0  0  0  0  0  0  0  0  0  0  0
    1.1671    2.0997    0.0022 C   0  0  0  0  0  0  0  0  0  0  0  0
    2.3804    1.4252   -0.0130 C   0  0  0  0  0  0  0  0  0  0  0  0
    2.4077    0.0306   -0.0212 C   0  0  0  0  0  0  0  0  0  0  0  0
    1.2264   -0.6835   -0.0138 C   0  0  0  0  0  0  0  0  0  0  0  0
    0.0021   -0.0041    0.0020 C   0  0  0  0  0  0  0  0  0  0  0  0
   -1.2592   -0.7582    0.0105 C   0  0  0  0  0  0  0  0  0  0  0  0
   -2.4393   -0.1007    0.0257 C   0  0  0  0  0  0  0  0  0  0  0  0
   -3.6561   -0.8283    0.0339 C   0  0  0  0  0  0  0  0  0  0  0  0
   -3.6375   -2.0447    0.0272 O   0  0  0  0  0  0  0  0  0  0  0  0
   -4.8347   -0.1717    0.0492 O   0  0  0  0  0  0  0  0  0  0  0  0
   -6.0211   -0.9682    0.0567 C   0  0  2  0  0  0  0  0  0  0  0  0
   -5.8318   -1.9068   -0.4641 H   0  0  0  0  0  0  0  0  0  0  0  0
   -7.1480   -0.2115   -0.6494 C   0  0  0  0  0  0  0  0  0  0  0  0
   -8.4182   -1.0643   -0.6413 C   0  0  1  0  0  0  0  0  0  0  0  0
   -8.8273   -1.3563    0.8037 C   0  0  0  0  0  0  0  0  0  0  0  0
   -7.7004   -2.1130    1.5098 C   0  0  2  0  0  0  0  0  0  0  0  0
   -7.9919   -2.3211    2.5393 H   0  0  0  0  0  0  0  0  0  0  0  0
   -6.4302   -1.2602    1.5017 C   0  0  1  0  0  0  0  0  0  0  0  0
   -6.6195   -0.3216    2.0225 H   0  0  0  0  0  0  0  0  0  0  0  0
   -5.3778   -1.9670    2.1612 O   0  0  0  0  0  0  0  0  0  0  0  0
   -7.4523   -3.3436    0.8270 O   0  0  0  0  0  0  0  0  0  0  0  0
   -9.5281   -0.3189   -1.3368 C   0  0  0  0  0  0  0  0  0  0  0  0
  -10.0575   -0.7972   -2.3254 O   0  0  0  0  0  0  0  0  0  0  0  0
   -9.8966    0.7624   -0.9107 O   0  5  0  0  0  0  0  0  0  0  0  0
   -8.1700   -2.2949   -1.3241 O   0  0  0  0  0  0  0  0  0  0  0  0
    3.5987   -0.6259   -0.0370 O   0  0  0  0  0  0  0  0  0  0  0  0
    3.5442    2.1252   -0.0204 O   0  0  0  0  0  0  0  0  0  0  0  0
   -0.9592    1.9225    0.0260 H   0  0  0  0  0  0  0  0  0  0  0  0
    1.1513    3.1796    0.0078 H   0  0  0  0  0  0  0  0  0  0  0  0
    1.2463   -1.7633   -0.0201 H   0  0  0  0  0  0  0  0  0  0  0  0
   -1.2427   -1.8381    0.0045 H   0  0  0  0  0  0  0  0  0  0  0  0
   -2.4557    0.9791    0.0317 H   0  0  0  0  0  0  0  0  0  0  0  0
   -7.3372    0.7272   -0.1286 H   0  0  0  0  0  0  0  0  0  0  0  0
   -6.8565   -0.0034   -1.6789 H   0  0  0  0  0  0  0  0  0  0  0  0
   -9.0166   -0.4177    1.3245 H   0  0  0  0  0  0  0  0  0  0  0  0
   -9.7322   -1.9639    0.8095 H   0  0  0  0  0  0  0  0  0  0  0  0
   -5.5686   -2.1859    3.0835 H   0  0  0  0  0  0  0  0  0  0  0  0
   -8.2161   -3.9356    0.7933 H   0  0  0  0  0  0  0  0  0  0  0  0
   -8.9339   -2.8869   -1.3579 H   0  0  0  0  0  0  0  0  0  0  0  0
    3.9520   -0.8208    0.8417 H   0  0  0  0  0  0  0  0  0  0  0  0
    3.8897    2.3232    0.8608 H   0  0  0  0  0  0  0  0  0  0  0  0
  1  6  2  0  0  0  0
  1  2  1  0  0  0  0
  1 29  1  0  0  0  0
  2  3  2  0  0  0  0
  2 30  1  0  0  0  0
  3  4  1  0  0  0  0
  3 28  1  0  0  0  0
  4  5  2  0  0  0  0
  4 27  1  0  0  0  0
  5  6  1  0  0  0  0
  5 31  1  0  0  0  0
  6  7  1  0  0  0  0
  7  8  2  0  0  0  0
  7 32  1  0  0  0  0
  8  9  1  0  0  0  0
  8 33  1  0  0  0  0
  9 10  2  0  0  0  0
  9 11  1  0  0  0  0
 11 12  1  0  0  0  0
 12 13  1  6  0  0  0
 12 19  1  0  0  0  0
 12 14  1  0  0  0  0
 14 15  1  0  0  0  0
 14 34  1  0  0  0  0
 14 35  1  0  0  0  0
 15 16  1  0  0  0  0
 15 23  1  6  0  0  0
 15 26  1  0  0  0  0
 16 17  1  0  0  0  0
 16 36  1  0  0  0  0
 16 37  1  0  0  0  0
 17 18  1  1  0  0  0
 17 19  1  0  0  0  0
 17 22  1  0  0  0  0
 19 20  1  1  0  0  0
 19 21  1  0  0  0  0
 21 38  1  0  0  0  0
 22 39  1  0  0  0  0
 23 24  2  0  0  0  0
 23 25  1  0  0  0  0
 26 40  1  0  0  0  0
 27 41  1  0  0  0  0
 28 42  1  0  0  0  0
M  CHG  1  25  -1
M  END
>  <cansmi>
O=C(O[C@@H]1C[C@@](O)(C[C@H]([C@H]1O)O)C(=O)[O-])/C=C/c1ccc(c(c1)O)O

>  <HBA2>
9

>  <HBD>
5

>  <logP>
-1.9806

>  <TPSA>
167.58

>  <MW>
353.301

$$$$
ZINC18286095
 OpenBabel02121623173D

 27 29  0  0  1  0  0  0  0  0999 V2000
   -0.0167    1.3787    0.0096 C   0  0  0  0  0  0  0  0  0  0  0  0
    1.1697    2.0910    0.0021 C   0  0  0  0  0  0  0  0  0  0  0  0
    2.3767    1.4251   -0.0244 C   0  0  0  0  0  0  0  0  0  0  0  0
    2.4036    0.0278   -0.0374 C   0  0  0  0  0  0  0  0  0  0  0  0
    1.2046   -0.6827   -0.0107 C   0  0  0  0  0  0  0  0  0  0  0  0
    0.0021   -0.0041    0.0020 C   0  0  0  0  0  0  0  0  0  0  0  0
    1.2023   -2.1933    0.0336 C   0  0  0  0  0  0  0  0  0  0  0  0
    2.5122   -2.6647   -0.4417 N   0  0  0  0  0  0  0  0  0  0  0  0
    2.8076   -3.9556   -1.0609 C   0  0  0  0  0  0  0  0  0  0  0  0
    4.2947   -3.9194   -1.4694 C   0  0  0  0  0  0  0  0  0  0  0  0
    4.8536   -2.7493   -0.6271 C   0  0  1  0  0  0  0  0  0  0  0  0
    5.5951   -2.1885   -1.1962 H   0  0  0  0  0  0  0  0  0  0  0  0
    3.6444   -1.8935   -0.3464 C   0  0  0  0  0  0  0  0  0  0  0  0
    3.6170   -0.6153   -0.0957 N   0  3  0  0  0  0  0  0  0  0  0  0
    5.4211   -3.2350    0.5912 O   0  0  0  0  0  0  0  0  0  0  0  0
   -0.9601    1.9042    0.0260 H   0  0  0  0  0  0  0  0  0  0  0  0
    1.1501    3.1707    0.0167 H   0  0  0  0  0  0  0  0  0  0  0  0
    3.3013    1.9832   -0.0355 H   0  0  0  0  0  0  0  0  0  0  0  0
   -0.9268   -0.5550    0.0060 H   0  0  0  0  0  0  0  0  0  0  0  0
    1.0382   -2.5315    1.0568 H   0  0  0  0  0  0  0  0  0  0  0  0
    0.4147   -2.5795   -0.6134 H   0  0  0  0  0  0  0  0  0  0  0  0
    2.6364   -4.7603   -0.3460 H   0  0  0  0  0  0  0  0  0  0  0  0
    2.1819   -4.0989   -1.9418 H   0  0  0  0  0  0  0  0  0  0  0  0
    4.7898   -4.8545   -1.2076 H   0  0  0  0  0  0  0  0  0  0  0  0
    4.3976   -3.7119   -2.5346 H   0  0  0  0  0  0  0  0  0  0  0  0
    6.1651   -3.8396    0.4649 H   0  0  0  0  0  0  0  0  0  0  0  0
    4.4412   -0.1244    0.0477 H   0  0  0  0  0  0  0  0  0  0  0  0
  1  6  2  0  0  0  0
  1  2  1  0  0  0  0
  1 16  1  0  0  0  0
  2  3  2  0  0  0  0
  2 17  1  0  0  0  0
  3  4  1  0  0  0  0
  3 18  1  0  0  0  0
  4 14  1  0  0  0  0
  4  5  2  0  0  0  0
  5  6  1  0  0  0  0
  5  7  1  0  0  0  0
  6 19  1  0  0  0  0
  7  8  1  0  0  0  0
  7 20  1  0  0  0  0
  7 21  1  0  0  0  0
  8 13  1  0  0  0  0
  8  9  1  0  0  0  0
  9 10  1  0  0  0  0
  9 22  1  0  0  0  0
  9 23  1  0  0  0  0
 10 11  1  0  0  0  0
 10 24  1  0  0  0  0
 10 25  1  0  0  0  0
 11 12  1  6  0  0  0
 11 13  1  0  0  0  0
 11 15  1  0  0  0  0
 13 14  2  0  0  0  0
 14 27  1  0  0  0  0
 15 26  1  0  0  0  0
M  CHG  1  14   1
M  END
>  <cansmi>
O[C@H]1CCN2C1=[NH+]c1ccccc1C2

>  <HBA2>
2

>  <HBD>
2

>  <logP>
0.8845

>  <TPSA>
37.44

>  <MW>
189.234

$$$$
ZINC85468948
 OpenBabel02121623173D

 75 78  0  0  1  0  0  0  0  0999 V2000
    0.6806   -1.0115   -2.2136 C   0  0  0  0  0  0  0  0  0  0  0  0
    0.8191   -2.2322   -1.3017 C   0  0  2  0  0  0  0  0  0  0  0  0
    1.5572   -2.9166   -1.7199 H   0  0  0  0  0  0  0  0  0  0  0  0
   -0.5322   -2.9434   -1.1919 C   0  0  1  0  0  0  0  0  0  0  0  0
   -0.8349   -3.3039   -2.1750 H   0  0  0  0  0  0  0  0  0  0  0  0
   -0.4000   -4.1284   -0.2304 C   0  0  1  0  0  0  0  0  0  0  0  0
    0.3115   -4.8484   -0.6347 H   0  0  0  0  0  0  0  0  0  0  0  0
    0.1005   -3.6189    1.1247 C   0  0  1  0  0  0  0  0  0  0  0  0
    0.2502   -4.4627    1.7984 H   0  0  0  0  0  0  0  0  0  0  0  0
    1.4273   -2.8817    0.9255 C   0  0  1  0  0  0  0  0  0  0  0  0
    2.1734   -3.5746    0.5365 H   0  0  0  0  0  0  0  0  0  0  0  0
    1.2415   -1.8113   -0.0030 O   0  0  0  0  0  0  0  0  0  0  0  0
    1.8726   -2.3552    2.1771 O   0  0  0  0  0  0  0  0  0  0  0  0
    3.2213   -1.8833    2.1624 C   0  0  2  0  0  0  0  0  0  0  0  0
    3.5169   -1.6571    1.1380 H   0  0  0  0  0  0  0  0  0  0  0  0
    4.1468   -2.9607    2.7362 C   0  0  1  0  0  0  0  0  0  0  0  0
    5.1809   -2.6209    2.6795 H   0  0  0  0  0  0  0  0  0  0  0  0
    3.7705   -3.2152    4.1991 C   0  0  1  0  0  0  0  0  0  0  0  0
    4.4596   -3.9406    4.6315 H   0  0  0  0  0  0  0  0  0  0  0  0
    3.8584   -1.8994    4.9768 C   0  0  1  0  0  0  0  0  0  0  0  0
    4.8851   -1.5340    4.9581 H   0  0  0  0  0  0  0  0  0  0  0  0
    2.9972   -0.9322    4.3727 O   0  0  0  0  0  0  0  0  0  0  0  0
    3.3300   -0.6181    3.0175 C   0  0  2  0  0  0  0  0  0  0  0  0
    4.3499   -0.2360    2.9732 H   0  0  0  0  0  0  0  0  0  0  0  0
    2.4277    0.3721    2.5202 O   0  0  0  0  0  0  0  0  0  0  0  0
    2.5561    1.6277    3.0179 C   0  0  0  0  0  0  0  0  0  0  0  0
    3.5966    1.9212    3.8905 C   0  0  0  0  0  0  0  0  0  0  0  0
    3.7355    3.1971    4.4032 C   0  0  0  0  0  0  0  0  0  0  0  0
    2.8187    4.2008    4.0381 C   0  0  0  0  0  0  0  0  0  0  0  0
    1.7682    3.8936    3.1530 C   0  0  0  0  0  0  0  0  0  0  0  0
    1.6493    2.6131    2.6471 C   0  0  0  0  0  0  0  0  0  0  0  0
    0.8788    4.8523    2.7939 O   0  0  0  0  0  0  0  0  0  0  0  0
    2.9564    5.5531    4.5748 C   0  0  0  0  0  0  0  0  0  0  0  0
    3.8635    5.8136    5.3381 O   0  0  0  0  0  0  0  0  0  0  0  0
    1.9721    6.6240    4.1807 C   0  0  0  0  0  0  0  0  0  0  0  0
    2.3399    7.9359    4.8770 C   0  0  0  0  0  0  0  0  0  0  0  0
    1.3556    9.0068    4.4829 C   0  0  0  0  0  0  0  0  0  0  0  0
    1.5979    9.7913    3.3704 C   0  0  0  0  0  0  0  0  0  0  0  0
    0.6975   10.7740    3.0073 C   0  0  0  0  0  0  0  0  0  0  0  0
   -0.4510   10.9731    3.7596 C   0  0  0  0  0  0  0  0  0  0  0  0
   -0.6921   10.1843    4.8751 C   0  0  0  0  0  0  0  0  0  0  0  0
    0.2089    9.1995    5.2311 C   0  0  0  0  0  0  0  0  0  0  0  0
   -1.3382   11.9395    3.4047 O   0  0  0  0  0  0  0  0  0  0  0  0
    4.7515    3.4810    5.2554 O   0  0  0  0  0  0  0  0  0  0  0  0
    3.4263   -2.1334    6.4257 C   0  0  0  0  0  0  0  0  0  0  0  0
    3.6186   -0.9347    7.1796 O   0  0  0  0  0  0  0  0  0  0  0  0
    2.4368   -3.7237    4.2676 O   0  0  0  0  0  0  0  0  0  0  0  0
    3.9983   -4.1676    1.9857 O   0  0  0  0  0  0  0  0  0  0  0  0
   -0.8641   -2.7258    1.6850 O   0  0  0  0  0  0  0  0  0  0  0  0
   -1.6737   -4.7554   -0.0665 O   0  0  0  0  0  0  0  0  0  0  0  0
   -1.5132   -2.0308   -0.6950 O   0  0  0  0  0  0  0  0  0  0  0  0
    1.6371   -0.4921   -2.2731 H   0  0  0  0  0  0  0  0  0  0  0  0
    0.3802   -1.3348   -3.2103 H   0  0  0  0  0  0  0  0  0  0  0  0
   -0.0739   -0.3381   -1.8072 H   0  0  0  0  0  0  0  0  0  0  0  0
    4.2990    1.1497    4.1694 H   0  0  0  0  0  0  0  0  0  0  0  0
    0.8464    2.3763    1.9647 H   0  0  0  0  0  0  0  0  0  0  0  0
    1.1338    5.3497    2.0048 H   0  0  0  0  0  0  0  0  0  0  0  0
    2.0021    6.7653    3.1003 H   0  0  0  0  0  0  0  0  0  0  0  0
    0.9682    6.3228    4.4801 H   0  0  0  0  0  0  0  0  0  0  0  0
    2.3099    7.7946    5.9574 H   0  0  0  0  0  0  0  0  0  0  0  0
    3.3437    8.2371    4.5776 H   0  0  0  0  0  0  0  0  0  0  0  0
    2.4922    9.6360    2.7850 H   0  0  0  0  0  0  0  0  0  0  0  0
    0.8875   11.3870    2.1387 H   0  0  0  0  0  0  0  0  0  0  0  0
   -1.5854   10.3374    5.4625 H   0  0  0  0  0  0  0  0  0  0  0  0
    0.0196    8.5822    6.0968 H   0  0  0  0  0  0  0  0  0  0  0  0
   -2.0268   11.6372    2.7968 H   0  0  0  0  0  0  0  0  0  0  0  0
    5.5593    3.7826    4.8178 H   0  0  0  0  0  0  0  0  0  0  0  0
    2.3731   -2.4130    6.4502 H   0  0  0  0  0  0  0  0  0  0  0  0
    4.0251   -2.9348    6.8585 H   0  0  0  0  0  0  0  0  0  0  0  0
    3.3649   -1.0100    8.1097 H   0  0  0  0  0  0  0  0  0  0  0  0
    2.1319   -3.9079    5.1665 H   0  0  0  0  0  0  0  0  0  0  0  0
    4.5564   -4.8942    2.2949 H   0  0  0  0  0  0  0  0  0  0  0  0
   -0.6119   -2.3640    2.5455 H   0  0  0  0  0  0  0  0  0  0  0  0
   -1.6639   -5.5156    0.5310 H   0  0  0  0  0  0  0  0  0  0  0  0
   -1.6453   -1.2527   -1.2538 H   0  0  0  0  0  0  0  0  0  0  0  0
  1  2  1  0  0  0  0
  1 52  1  0  0  0  0
  1 53  1  0  0  0  0
  1 54  1  0  0  0  0
  2  3  1  6  0  0  0
  2 12  1  0  0  0  0
  2  4  1  0  0  0  0
  4  5  1  6  0  0  0
  4  6  1  0  0  0  0
  4 51  1  0  0  0  0
  6  7  1  6  0  0  0
  6  8  1  0  0  0  0
  6 50  1  0  0  0  0
  8  9  1  1  0  0  0
  8 10  1  0  0  0  0
  8 49  1  0  0  0  0
 10 11  1  6  0  0  0
 10 12  1  0  0  0  0
 10 13  1  0  0  0  0
 13 14  1  0  0  0  0
 14 15  1  6  0  0  0
 14 23  1  0  0  0  0
 14 16  1  0  0  0  0
 16 17  1  6  0  0  0
 16 18  1  0  0  0  0
 16 48  1  0  0  0  0
 18 19  1  1  0  0  0
 18 20  1  0  0  0  0
 18 47  1  0  0  0  0
 20 21  1  6  0  0  0
 20 22  1  0  0  0  0
 20 45  1  0  0  0  0
 22 23  1  0  0  0  0
 23 24  1  6  0  0  0
 23 25  1  0  0  0  0
 25 26  1  0  0  0  0
 26 31  2  0  0  0  0
 26 27  1  0  0  0  0
 27 28  2  0  0  0  0
 27 55  1  0  0  0  0
 28 29  1  0  0  0  0
 28 44  1  0  0  0  0
 29 30  2  0  0  0  0
 29 33  1  0  0  0  0
 30 31  1  0  0  0  0
 30 32  1  0  0  0  0
 31 56  1  0  0  0  0
 32 57  1  0  0  0  0
 33 34  2  0  0  0  0
 33 35  1  0  0  0  0
 35 36  1  0  0  0  0
 35 58  1  0  0  0  0
 35 59  1  0  0  0  0
 36 37  1  0  0  0  0
 36 60  1  0  0  0  0
 36 61  1  0  0  0  0
 37 42  2  0  0  0  0
 37 38  1  0  0  0  0
 38 39  2  0  0  0  0
 38 62  1  0  0  0  0
 39 40  1  0  0  0  0
 39 63  1  0  0  0  0
 40 41  2  0  0  0  0
 40 43  1  0  0  0  0
 41 42  1  0  0  0  0
 41 64  1  0  0  0  0
 42 65  1  0  0  0  0
 43 66  1  0  0  0  0
 44 67  1  0  0  0  0
 45 46  1  0  0  0  0
 45 68  1  0  0  0  0
 45 69  1  0  0  0  0
 46 70  1  0  0  0  0
 47 71  1  0  0  0  0
 48 72  1  0  0  0  0
 49 73  1  0  0  0  0
 50 74  1  0  0  0  0
 51 75  1  0  0  0  0
M  END
>  <cansmi>
OC[C@@H]1O[C@H](Oc2cc(O)c(c(c2)O)C(=O)CCc2ccc(cc2)O)[C@@H]([C@@H]([C@@H]1O)O)O[C@@H]1O[C@H](C)[C@@H]([C@@H]([C@@H]1O)O)O

>  <HBA2>
14

>  <HBD>
9

>  <logP>
-1.3506

>  <TPSA>
236.06

>  <MW>
582.55

$$$$
ZINC85468954
 OpenBabel02121623173D

 75 78  0  0  1  0  0  0  0  0999 V2000
    2.6195    0.3717    1.5940 C   0  0  0  0  0  0  0  0  0  0  0  0
    1.7720   -0.8079    1.1132 C   0  0  1  0  0  0  0  0  0  0  0  0
    0.7653   -0.4610    0.8800 H   0  0  0  0  0  0  0  0  0  0  0  0
    2.4063   -1.4146   -0.1410 C   0  0  1  0  0  0  0  0  0  0  0  0
    3.4274   -1.7247    0.0808 H   0  0  0  0  0  0  0  0  0  0  0  0
    1.5861   -2.6312   -0.5811 C   0  0  1  0  0  0  0  0  0  0  0  0
    2.0637   -3.1014   -1.4406 H   0  0  0  0  0  0  0  0  0  0  0  0
    1.5156   -3.6315    0.5768 C   0  0  1  0  0  0  0  0  0  0  0  0
    2.5187   -3.9864    0.8131 H   0  0  0  0  0  0  0  0  0  0  0  0
    0.9156   -2.9392    1.8033 C   0  0  1  0  0  0  0  0  0  0  0  0
    0.9025   -3.6341    2.6429 H   0  0  0  0  0  0  0  0  0  0  0  0
    1.7084   -1.7991    2.1407 O   0  0  0  0  0  0  0  0  0  0  0  0
   -0.4190   -2.5215    1.5095 O   0  0  0  0  0  0  0  0  0  0  0  0
   -1.1655   -2.1111    2.6569 C   0  0  2  0  0  0  0  0  0  0  0  0
   -0.4806   -1.7820    3.4384 H   0  0  0  0  0  0  0  0  0  0  0  0
   -2.0016   -3.2871    3.1710 C   0  0  1  0  0  0  0  0  0  0  0  0
   -2.5328   -2.9892    4.0749 H   0  0  0  0  0  0  0  0  0  0  0  0
   -3.0117   -3.6912    2.0927 C   0  0  1  0  0  0  0  0  0  0  0  0
   -3.6479   -4.4912    2.4710 H   0  0  0  0  0  0  0  0  0  0  0  0
   -3.8741   -2.4787    1.7324 C   0  0  1  0  0  0  0  0  0  0  0  0
   -4.4368   -2.1593    2.6096 H   0  0  0  0  0  0  0  0  0  0  0  0
   -3.0325   -1.4113    1.2913 O   0  0  0  0  0  0  0  0  0  0  0  0
   -2.0981   -0.9587    2.2752 C   0  0  2  0  0  0  0  0  0  0  0  0
   -2.6375   -0.6194    3.1595 H   0  0  0  0  0  0  0  0  0  0  0  0
   -1.3281    0.1211    1.7429 O   0  0  0  0  0  0  0  0  0  0  0  0
   -1.9731    1.2980    1.5438 C   0  0  0  0  0  0  0  0  0  0  0  0
   -3.2901    1.4426    1.9621 C   0  0  0  0  0  0  0  0  0  0  0  0
   -3.9558    2.6372    1.7634 C   0  0  0  0  0  0  0  0  0  0  0  0
   -3.2950    3.7097    1.1354 C   0  0  0  0  0  0  0  0  0  0  0  0
   -1.9605    3.5535    0.7157 C   0  0  0  0  0  0  0  0  0  0  0  0
   -1.3104    2.3526    0.9281 C   0  0  0  0  0  0  0  0  0  0  0  0
   -1.3134    4.5796    0.1096 O   0  0  0  0  0  0  0  0  0  0  0  0
   -3.9900    4.9771    0.9201 C   0  0  0  0  0  0  0  0  0  0  0  0
   -5.1409    5.1074    1.2832 O   0  0  0  0  0  0  0  0  0  0  0  0
   -3.2779    6.1222    0.2472 C   0  0  0  0  0  0  0  0  0  0  0  0
   -4.2226    7.3214    0.1460 C   0  0  0  0  0  0  0  0  0  0  0  0
   -3.5105    8.4665   -0.5269 C   0  0  0  0  0  0  0  0  0  0  0  0
   -2.7989    9.3777    0.2314 C   0  0  0  0  0  0  0  0  0  0  0  0
   -2.1456   10.4285   -0.3830 C   0  0  0  0  0  0  0  0  0  0  0  0
   -2.2036   10.5688   -1.7620 C   0  0  0  0  0  0  0  0  0  0  0  0
   -2.9179    9.6528   -2.5206 C   0  0  0  0  0  0  0  0  0  0  0  0
   -3.5652    8.6008   -1.9019 C   0  0  0  0  0  0  0  0  0  0  0  0
   -1.5621   11.6019   -2.3686 O   0  0  0  0  0  0  0  0  0  0  0  0
   -5.2416    2.7757    2.1717 O   0  0  0  0  0  0  0  0  0  0  0  0
   -4.8459   -2.8583    0.6132 C   0  0  0  0  0  0  0  0  0  0  0  0
   -5.7283   -1.7639    0.3571 O   0  0  0  0  0  0  0  0  0  0  0  0
   -2.3141   -4.1447    0.9309 O   0  0  0  0  0  0  0  0  0  0  0  0
   -1.1438   -4.3921    3.4630 O   0  0  0  0  0  0  0  0  0  0  0  0
    0.6934   -4.7386    0.2020 O   0  0  0  0  0  0  0  0  0  0  0  0
    0.2661   -2.2146   -0.9362 O   0  0  0  0  0  0  0  0  0  0  0  0
    2.4194   -0.4420   -1.1878 O   0  0  0  0  0  0  0  0  0  0  0  0
    3.6098    0.0158    1.8780 H   0  0  0  0  0  0  0  0  0  0  0  0
    2.7127    1.1032    0.7912 H   0  0  0  0  0  0  0  0  0  0  0  0
    2.1397    0.8367    2.4552 H   0  0  0  0  0  0  0  0  0  0  0  0
   -3.7954    0.6185    2.4437 H   0  0  0  0  0  0  0  0  0  0  0  0
   -0.2852    2.2320    0.6104 H   0  0  0  0  0  0  0  0  0  0  0  0
   -0.8447    5.1646    0.7204 H   0  0  0  0  0  0  0  0  0  0  0  0
   -2.4010    6.3989    0.8325 H   0  0  0  0  0  0  0  0  0  0  0  0
   -2.9667    5.8193   -0.7525 H   0  0  0  0  0  0  0  0  0  0  0  0
   -5.0996    7.0447   -0.4393 H   0  0  0  0  0  0  0  0  0  0  0  0
   -4.5338    7.6242    1.1457 H   0  0  0  0  0  0  0  0  0  0  0  0
   -2.7540    9.2681    1.3049 H   0  0  0  0  0  0  0  0  0  0  0  0
   -1.5905   11.1405    0.2098 H   0  0  0  0  0  0  0  0  0  0  0  0
   -2.9646    9.7599   -3.5942 H   0  0  0  0  0  0  0  0  0  0  0  0
   -4.1177    7.8850   -2.4924 H   0  0  0  0  0  0  0  0  0  0  0  0
   -0.6513   11.4030   -2.6253 H   0  0  0  0  0  0  0  0  0  0  0  0
   -5.3338    3.1031    3.0769 H   0  0  0  0  0  0  0  0  0  0  0  0
   -4.2847   -3.0920   -0.2915 H   0  0  0  0  0  0  0  0  0  0  0  0
   -5.4263   -3.7298    0.9161 H   0  0  0  0  0  0  0  0  0  0  0  0
   -6.3735   -1.9343   -0.3428 H   0  0  0  0  0  0  0  0  0  0  0  0
   -2.8931   -4.4174    0.2059 H   0  0  0  0  0  0  0  0  0  0  0  0
   -1.6076   -5.1734    3.7939 H   0  0  0  0  0  0  0  0  0  0  0  0
    0.6041   -5.4128    0.8895 H   0  0  0  0  0  0  0  0  0  0  0  0
   -0.3095   -2.9359   -1.2253 H   0  0  0  0  0  0  0  0  0  0  0  0
    2.9185    0.3584   -0.9749 H   0  0  0  0  0  0  0  0  0  0  0  0
  1  2  1  0  0  0  0
  1 52  1  0  0  0  0
  1 53  1  0  0  0  0
  1 54  1  0  0  0  0
  2  3  1  6  0  0  0
  2 12  1  0  0  0  0
  2  4  1  0  0  0  0
  4  5  1  1  0  0  0
  4  6  1  0  0  0  0
  4 51  1  0  0  0  0
  6  7  1  6  0  0  0
  6  8  1  0  0  0  0
  6 50  1  0  0  0  0
  8  9  1  1  0  0  0
  8 10  1  0  0  0  0
  8 49  1  0  0  0  0
 10 11  1  1  0  0  0
 10 12  1  0  0  0  0
 10 13  1  0  0  0  0
 13 14  1  0  0  0  0
 14 15  1  1  0  0  0
 14 23  1  0  0  0  0
 14 16  1  0  0  0  0
 16 17  1  1  0  0  0
 16 18  1  0  0  0  0
 16 48  1  0  0  0  0
 18 19  1  1  0  0  0
 18 20  1  0  0  0  0
 18 47  1  0  0  0  0
 20 21  1  1  0  0  0
 20 22  1  0  0  0  0
 20 45  1  0  0  0  0
 22 23  1  0  0  0  0
 23 24  1  1  0  0  0
 23 25  1  0  0  0  0
 25 26  1  0  0  0  0
 26 31  2  0  0  0  0
 26 27  1  0  0  0  0
 27 28  2  0  0  0  0
 27 55  1  0  0  0  0
 28 29  1  0  0  0  0
 28 44  1  0  0  0  0
 29 30  2  0  0  0  0
 29 33  1  0  0  0  0
 30 31  1  0  0  0  0
 30 32  1  0  0  0  0
 31 56  1  0  0  0  0
 32 57  1  0  0  0  0
 33 34  2  0  0  0  0
 33 35  1  0  0  0  0
 35 36  1  0  0  0  0
 35 58  1  0  0  0  0
 35 59  1  0  0  0  0
 36 37  1  0  0  0  0
 36 60  1  0  0  0  0
 36 61  1  0  0  0  0
 37 42  2  0  0  0  0
 37 38  1  0  0  0  0
 38 39  2  0  0  0  0
 38 62  1  0  0  0  0
 39 40  1  0  0  0  0
 39 63  1  0  0  0  0
 40 41  2  0  0  0  0
 40 43  1  0  0  0  0
 41 42  1  0  0  0  0
 41 64  1  0  0  0  0
 42 65  1  0  0  0  0
 43 66  1  0  0  0  0
 44 67  1  0  0  0  0
 45 46  1  0  0  0  0
 45 68  1  0  0  0  0
 45 69  1  0  0  0  0
 46 70  1  0  0  0  0
 47 71  1  0  0  0  0
 48 72  1  0  0  0  0
 49 73  1  0  0  0  0
 50 74  1  0  0  0  0
 51 75  1  0  0  0  0
M  END
>  <cansmi>
OC[C@@H]1O[C@H](Oc2cc(O)c(c(c2)O)C(=O)CCc2ccc(cc2)O)[C@@H]([C@@H]([C@@H]1O)O)O[C@@H]1O[C@@H](C)[C@@H]([C@@H]([C@@H]1O)O)O

>  <HBA2>
14

>  <HBD>
9

>  <logP>
-1.3506

>  <TPSA>
236.06

>  <MW>
582.55

$$$$
ZINC85468963
 OpenBabel02121623173D

 75 78  0  0  1  0  0  0  0  0999 V2000
    0.6445   -1.0539   -2.1995 C   0  0  0  0  0  0  0  0  0  0  0  0
    0.7869   -2.2657   -1.2763 C   0  0  2  0  0  0  0  0  0  0  0  0
    1.5208   -2.9557   -1.6927 H   0  0  0  0  0  0  0  0  0  0  0  0
   -0.5649   -2.9731   -1.1501 C   0  0  2  0  0  0  0  0  0  0  0  0
   -1.3089   -2.2720   -0.7719 H   0  0  0  0  0  0  0  0  0  0  0  0
   -0.4284   -4.1487   -0.1776 C   0  0  1  0  0  0  0  0  0  0  0  0
    0.2790   -4.8741   -0.5795 H   0  0  0  0  0  0  0  0  0  0  0  0
    0.0825   -3.6266    1.1688 C   0  0  1  0  0  0  0  0  0  0  0  0
    0.2352   -4.4638    1.8499 H   0  0  0  0  0  0  0  0  0  0  0  0
    1.4093   -2.8940    0.9531 C   0  0  1  0  0  0  0  0  0  0  0  0
    2.1513   -3.5922    0.5660 H   0  0  0  0  0  0  0  0  0  0  0  0
    1.2191   -1.8326    0.0152 O   0  0  0  0  0  0  0  0  0  0  0  0
    1.8641   -2.3558    2.1963 O   0  0  0  0  0  0  0  0  0  0  0  0
    3.2137   -1.8868    2.1676 C   0  0  2  0  0  0  0  0  0  0  0  0
    3.5010   -1.6666    1.1394 H   0  0  0  0  0  0  0  0  0  0  0  0
    4.1419   -2.9630    2.7391 C   0  0  1  0  0  0  0  0  0  0  0  0
    5.1762   -2.6257    2.6717 H   0  0  0  0  0  0  0  0  0  0  0  0
    3.7776   -3.2091    4.2064 C   0  0  1  0  0  0  0  0  0  0  0  0
    4.4689   -3.9336    4.6368 H   0  0  0  0  0  0  0  0  0  0  0  0
    3.8747   -1.8894    4.9764 C   0  0  1  0  0  0  0  0  0  0  0  0
    4.9020   -1.5262    4.9470 H   0  0  0  0  0  0  0  0  0  0  0  0
    3.0104   -0.9236    4.3746 O   0  0  0  0  0  0  0  0  0  0  0  0
    3.3322   -0.6174    3.0150 C   0  0  2  0  0  0  0  0  0  0  0  0
    4.3524   -0.2375    2.9600 H   0  0  0  0  0  0  0  0  0  0  0  0
    2.4277    0.3721    2.5202 O   0  0  0  0  0  0  0  0  0  0  0  0
    2.5561    1.6277    3.0179 C   0  0  0  0  0  0  0  0  0  0  0  0
    3.5966    1.9212    3.8905 C   0  0  0  0  0  0  0  0  0  0  0  0
    3.7355    3.1971    4.4032 C   0  0  0  0  0  0  0  0  0  0  0  0
    2.8187    4.2008    4.0381 C   0  0  0  0  0  0  0  0  0  0  0  0
    1.7682    3.8936    3.1530 C   0  0  0  0  0  0  0  0  0  0  0  0
    1.6493    2.6131    2.6471 C   0  0  0  0  0  0  0  0  0  0  0  0
    0.8788    4.8523    2.7939 O   0  0  0  0  0  0  0  0  0  0  0  0
    2.9564    5.5531    4.5748 C   0  0  0  0  0  0  0  0  0  0  0  0
    3.8635    5.8136    5.3381 O   0  0  0  0  0  0  0  0  0  0  0  0
    1.9721    6.6240    4.1807 C   0  0  0  0  0  0  0  0  0  0  0  0
    2.3399    7.9359    4.8770 C   0  0  0  0  0  0  0  0  0  0  0  0
    1.3556    9.0068    4.4829 C   0  0  0  0  0  0  0  0  0  0  0  0
    1.5979    9.7913    3.3704 C   0  0  0  0  0  0  0  0  0  0  0  0
    0.6975   10.7740    3.0073 C   0  0  0  0  0  0  0  0  0  0  0  0
   -0.4510   10.9731    3.7596 C   0  0  0  0  0  0  0  0  0  0  0  0
   -0.6921   10.1843    4.8751 C   0  0  0  0  0  0  0  0  0  0  0  0
    0.2089    9.1995    5.2311 C   0  0  0  0  0  0  0  0  0  0  0  0
   -1.3382   11.9395    3.4048 O   0  0  0  0  0  0  0  0  0  0  0  0
    4.7515    3.4810    5.2554 O   0  0  0  0  0  0  0  0  0  0  0  0
    3.4547   -2.1149    6.4302 C   0  0  0  0  0  0  0  0  0  0  0  0
    3.6558   -0.9127    7.1761 O   0  0  0  0  0  0  0  0  0  0  0  0
    2.4435   -3.7145    4.2890 O   0  0  0  0  0  0  0  0  0  0  0  0
    3.9845   -4.1736    1.9962 O   0  0  0  0  0  0  0  0  0  0  0  0
   -0.8765   -2.7260    1.7267 O   0  0  0  0  0  0  0  0  0  0  0  0
   -1.7020   -4.7714    0.0013 O   0  0  0  0  0  0  0  0  0  0  0  0
   -0.9723   -3.4566   -2.4316 O   0  0  0  0  0  0  0  0  0  0  0  0
    1.5788   -0.4926   -2.2090 H   0  0  0  0  0  0  0  0  0  0  0  0
    0.4135   -1.3920   -3.2097 H   0  0  0  0  0  0  0  0  0  0  0  0
   -0.1602   -0.4140   -1.8376 H   0  0  0  0  0  0  0  0  0  0  0  0
    4.2990    1.1497    4.1694 H   0  0  0  0  0  0  0  0  0  0  0  0
    0.8464    2.3763    1.9647 H   0  0  0  0  0  0  0  0  0  0  0  0
    1.1338    5.3497    2.0048 H   0  0  0  0  0  0  0  0  0  0  0  0
    2.0021    6.7653    3.1003 H   0  0  0  0  0  0  0  0  0  0  0  0
    0.9682    6.3228    4.4801 H   0  0  0  0  0  0  0  0  0  0  0  0
    2.3099    7.7946    5.9574 H   0  0  0  0  0  0  0  0  0  0  0  0
    3.3437    8.2371    4.5776 H   0  0  0  0  0  0  0  0  0  0  0  0
    2.4922    9.6360    2.7850 H   0  0  0  0  0  0  0  0  0  0  0  0
    0.8875   11.3870    2.1387 H   0  0  0  0  0  0  0  0  0  0  0  0
   -1.5854   10.3374    5.4625 H   0  0  0  0  0  0  0  0  0  0  0  0
    0.0196    8.5822    6.0968 H   0  0  0  0  0  0  0  0  0  0  0  0
   -2.0268   11.6372    2.7968 H   0  0  0  0  0  0  0  0  0  0  0  0
    5.5593    3.7826    4.8178 H   0  0  0  0  0  0  0  0  0  0  0  0
    2.4011   -2.3922    6.4652 H   0  0  0  0  0  0  0  0  0  0  0  0
    4.0555   -2.9152    6.8621 H   0  0  0  0  0  0  0  0  0  0  0  0
    3.4099   -0.9826    8.1087 H   0  0  0  0  0  0  0  0  0  0  0  0
    2.1459   -3.8933    5.1915 H   0  0  0  0  0  0  0  0  0  0  0  0
    4.5438   -4.8997    2.3045 H   0  0  0  0  0  0  0  0  0  0  0  0
   -0.6177   -2.3560    2.5818 H   0  0  0  0  0  0  0  0  0  0  0  0
   -1.6895   -5.5256    0.6064 H   0  0  0  0  0  0  0  0  0  0  0  0
   -1.0742   -2.7643   -3.0990 H   0  0  0  0  0  0  0  0  0  0  0  0
  1  2  1  0  0  0  0
  1 52  1  0  0  0  0
  1 53  1  0  0  0  0
  1 54  1  0  0  0  0
  2  3  1  6  0  0  0
  2 12  1  0  0  0  0
  2  4  1  0  0  0  0
  4  5  1  1  0  0  0
  4  6  1  0  0  0  0
  4 51  1  0  0  0  0
  6  7  1  6  0  0  0
  6  8  1  0  0  0  0
  6 50  1  0  0  0  0
  8  9  1  1  0  0  0
  8 10  1  0  0  0  0
  8 49  1  0  0  0  0
 10 11  1  6  0  0  0
 10 12  1  0  0  0  0
 10 13  1  0  0  0  0
 13 14  1  0  0  0  0
 14 15  1  6  0  0  0
 14 23  1  0  0  0  0
 14 16  1  0  0  0  0
 16 17  1  6  0  0  0
 16 18  1  0  0  0  0
 16 48  1  0  0  0  0
 18 19  1  1  0  0  0
 18 20  1  0  0  0  0
 18 47  1  0  0  0  0
 20 21  1  6  0  0  0
 20 22  1  0  0  0  0
 20 45  1  0  0  0  0
 22 23  1  0  0  0  0
 23 24  1  6  0  0  0
 23 25  1  0  0  0  0
 25 26  1  0  0  0  0
 26 31  2  0  0  0  0
 26 27  1  0  0  0  0
 27 28  2  0  0  0  0
 27 55  1  0  0  0  0
 28 29  1  0  0  0  0
 28 44  1  0  0  0  0
 29 30  2  0  0  0  0
 29 33  1  0  0  0  0
 30 31  1  0  0  0  0
 30 32  1  0  0  0  0
 31 56  1  0  0  0  0
 32 57  1  0  0  0  0
 33 34  2  0  0  0  0
 33 35  1  0  0  0  0
 35 36  1  0  0  0  0
 35 58  1  0  0  0  0
 35 59  1  0  0  0  0
 36 37  1  0  0  0  0
 36 60  1  0  0  0  0
 36 61  1  0  0  0  0
 37 42  2  0  0  0  0
 37 38  1  0  0  0  0
 38 39  2  0  0  0  0
 38 62  1  0  0  0  0
 39 40  1  0  0  0  0
 39 63  1  0  0  0  0
 40 41  2  0  0  0  0
 40 43  1  0  0  0  0
 41 42  1  0  0  0  0
 41 64  1  0  0  0  0
 42 65  1  0  0  0  0
 43 66  1  0  0  0  0
 44 67  1  0  0  0  0
 45 46  1  0  0  0  0
 45 68  1  0  0  0  0
 45 69  1  0  0  0  0
 46 70  1  0  0  0  0
 47 71  1  0  0  0  0
 48 72  1  0  0  0  0
 49 73  1  0  0  0  0
 50 74  1  0  0  0  0
 51 75  1  0  0  0  0
M  END
>  <cansmi>
OC[C@@H]1O[C@H](Oc2cc(O)c(c(c2)O)C(=O)CCc2ccc(cc2)O)[C@@H]([C@@H]([C@@H]1O)O)O[C@@H]1O[C@H](C)[C@H]([C@@H]([C@@H]1O)O)O

>  <HBA2>
14

>  <HBD>
9

>  <logP>
-1.3506

>  <TPSA>
236.06

>  <MW>
582.55

$$$$
ZINC85468968
 OpenBabel02121623173D

 75 78  0  0  1  0  0  0  0  0999 V2000
    2.7462    3.2619    0.7664 C   0  0  0  0  0  0  0  0  0  0  0  0
    1.9100    2.1585    0.1153 C   0  0  1  0  0  0  0  0  0  0  0  0
    0.9412    2.5623   -0.1788 H   0  0  0  0  0  0  0  0  0  0  0  0
    2.6390    1.6283   -1.1221 C   0  0  2  0  0  0  0  0  0  0  0  0
    2.0255    0.8706   -1.6096 H   0  0  0  0  0  0  0  0  0  0  0  0
    3.9726    1.0089   -0.6930 C   0  0  1  0  0  0  0  0  0  0  0  0
    4.6060    1.7776   -0.2502 H   0  0  0  0  0  0  0  0  0  0  0  0
    3.7038   -0.0907    0.3389 C   0  0  1  0  0  0  0  0  0  0  0  0
    4.6509   -0.4994    0.6909 H   0  0  0  0  0  0  0  0  0  0  0  0
    2.9336    0.5059    1.5199 C   0  0  1  0  0  0  0  0  0  0  0  0
    3.5427    1.2704    2.0022 H   0  0  0  0  0  0  0  0  0  0  0  0
    1.7188    1.0924    1.0475 O   0  0  0  0  0  0  0  0  0  0  0  0
    2.6303   -0.5257    2.4611 O   0  0  0  0  0  0  0  0  0  0  0  0
    2.1277   -0.0444    3.7092 C   0  0  2  0  0  0  0  0  0  0  0  0
    1.6989    0.9481    3.5708 H   0  0  0  0  0  0  0  0  0  0  0  0
    3.2701    0.0290    4.7270 C   0  0  1  0  0  0  0  0  0  0  0  0
    2.8976    0.4427    5.6641 H   0  0  0  0  0  0  0  0  0  0  0  0
    3.8140   -1.3822    4.9702 C   0  0  1  0  0  0  0  0  0  0  0  0
    4.5904   -1.3466    5.7344 H   0  0  0  0  0  0  0  0  0  0  0  0
    2.6723   -2.2863    5.4423 C   0  0  1  0  0  0  0  0  0  0  0  0
    2.2822   -1.9144    6.3897 H   0  0  0  0  0  0  0  0  0  0  0  0
    1.6303   -2.2854    4.4645 O   0  0  0  0  0  0  0  0  0  0  0  0
    1.0501   -0.9993    4.2292 C   0  0  2  0  0  0  0  0  0  0  0  0
    0.6387   -0.6105    5.1608 H   0  0  0  0  0  0  0  0  0  0  0  0
    0.0073   -1.1149    3.2591 O   0  0  0  0  0  0  0  0  0  0  0  0
   -1.1242   -1.7567    3.6445 C   0  0  0  0  0  0  0  0  0  0  0  0
   -1.2267   -2.2595    4.9357 C   0  0  0  0  0  0  0  0  0  0  0  0
   -2.3749   -2.9152    5.3376 C   0  0  0  0  0  0  0  0  0  0  0  0
   -3.4427   -3.0725    4.4342 C   0  0  0  0  0  0  0  0  0  0  0  0
   -3.3293   -2.5592    3.1284 C   0  0  0  0  0  0  0  0  0  0  0  0
   -2.1749   -1.9020    2.7471 C   0  0  0  0  0  0  0  0  0  0  0  0
   -4.3515   -2.7046    2.2491 O   0  0  0  0  0  0  0  0  0  0  0  0
   -4.6611   -3.7647    4.8490 C   0  0  0  0  0  0  0  0  0  0  0  0
   -4.7546   -4.2061    5.9758 O   0  0  0  0  0  0  0  0  0  0  0  0
   -5.8014   -3.9304    3.8778 C   0  0  0  0  0  0  0  0  0  0  0  0
   -6.9458   -4.6838    4.5587 C   0  0  0  0  0  0  0  0  0  0  0  0
   -8.0862   -4.8495    3.5875 C   0  0  0  0  0  0  0  0  0  0  0  0
   -9.0709   -3.8822    3.5077 C   0  0  0  0  0  0  0  0  0  0  0  0
  -10.1175   -4.0320    2.6186 C   0  0  0  0  0  0  0  0  0  0  0  0
  -10.1797   -5.1539    1.8049 C   0  0  0  0  0  0  0  0  0  0  0  0
   -9.1902   -6.1229    1.8865 C   0  0  0  0  0  0  0  0  0  0  0  0
   -8.1429   -5.9659    2.7737 C   0  0  0  0  0  0  0  0  0  0  0  0
  -11.2085   -5.3038    0.9297 O   0  0  0  0  0  0  0  0  0  0  0  0
   -2.4723   -3.4058    6.5981 O   0  0  0  0  0  0  0  0  0  0  0  0
    3.1949   -3.7120    5.6301 C   0  0  0  0  0  0  0  0  0  0  0  0
    2.1605   -4.5297    6.1811 O   0  0  0  0  0  0  0  0  0  0  0  0
    4.3626   -1.8984    3.7558 O   0  0  0  0  0  0  0  0  0  0  0  0
    4.3120    0.8634    4.2168 O   0  0  0  0  0  0  0  0  0  0  0  0
    2.9289   -1.1303   -0.2618 O   0  0  0  0  0  0  0  0  0  0  0  0
    4.6276    0.4477   -1.8324 O   0  0  0  0  0  0  0  0  0  0  0  0
    2.8812    2.7040   -2.0312 O   0  0  0  0  0  0  0  0  0  0  0  0
    3.7150    2.8580    1.0605 H   0  0  0  0  0  0  0  0  0  0  0  0
    2.8922    4.0749    0.0551 H   0  0  0  0  0  0  0  0  0  0  0  0
    2.2272    3.6391    1.6476 H   0  0  0  0  0  0  0  0  0  0  0  0
   -0.4062   -2.1377    5.6274 H   0  0  0  0  0  0  0  0  0  0  0  0
   -2.0875   -1.5039    1.7470 H   0  0  0  0  0  0  0  0  0  0  0  0
   -4.9909   -1.9794    2.2659 H   0  0  0  0  0  0  0  0  0  0  0  0
   -6.1520   -2.9490    3.5581 H   0  0  0  0  0  0  0  0  0  0  0  0
   -5.4604   -4.4948    3.0099 H   0  0  0  0  0  0  0  0  0  0  0  0
   -6.5953   -5.6652    4.8783 H   0  0  0  0  0  0  0  0  0  0  0  0
   -7.2868   -4.1194    5.4265 H   0  0  0  0  0  0  0  0  0  0  0  0
   -9.0219   -3.0090    4.1413 H   0  0  0  0  0  0  0  0  0  0  0  0
  -10.8868   -3.2764    2.5571 H   0  0  0  0  0  0  0  0  0  0  0  0
   -9.2365   -6.9972    1.2542 H   0  0  0  0  0  0  0  0  0  0  0  0
   -7.3700   -6.7177    2.8345 H   0  0  0  0  0  0  0  0  0  0  0  0
  -11.0407   -4.9235    0.0566 H   0  0  0  0  0  0  0  0  0  0  0  0
   -2.8434   -2.7808    7.2359 H   0  0  0  0  0  0  0  0  0  0  0  0
    3.5027   -4.1161    4.6658 H   0  0  0  0  0  0  0  0  0  0  0  0
    4.0483   -3.6998    6.3081 H   0  0  0  0  0  0  0  0  0  0  0  0
    2.4219   -5.4491    6.3273 H   0  0  0  0  0  0  0  0  0  0  0  0
    4.7261   -2.7908    3.8365 H   0  0  0  0  0  0  0  0  0  0  0  0
    5.0693    0.9548    4.8112 H   0  0  0  0  0  0  0  0  0  0  0  0
    2.7210   -1.8614    0.3360 H   0  0  0  0  0  0  0  0  0  0  0  0
    5.4803    0.0374   -1.6334 H   0  0  0  0  0  0  0  0  0  0  0  0
    2.0785    3.1455   -2.3408 H   0  0  0  0  0  0  0  0  0  0  0  0
  1  2  1  0  0  0  0
  1 52  1  0  0  0  0
  1 53  1  0  0  0  0
  1 54  1  0  0  0  0
  2  3  1  6  0  0  0
  2 12  1  0  0  0  0
  2  4  1  0  0  0  0
  4  5  1  6  0  0  0
  4  6  1  0  0  0  0
  4 51  1  0  0  0  0
  6  7  1  1  0  0  0
  6  8  1  0  0  0  0
  6 50  1  0  0  0  0
  8  9  1  1  0  0  0
  8 10  1  0  0  0  0
  8 49  1  0  0  0  0
 10 11  1  1  0  0  0
 10 12  1  0  0  0  0
 10 13  1  0  0  0  0
 13 14  1  0  0  0  0
 14 15  1  6  0  0  0
 14 23  1  0  0  0  0
 14 16  1  0  0  0  0
 16 17  1  1  0  0  0
 16 18  1  0  0  0  0
 16 48  1  0  0  0  0
 18 19  1  1  0  0  0
 18 20  1  0  0  0  0
 18 47  1  0  0  0  0
 20 21  1  1  0  0  0
 20 22  1  0  0  0  0
 20 45  1  0  0  0  0
 22 23  1  0  0  0  0
 23 24  1  1  0  0  0
 23 25  1  0  0  0  0
 25 26  1  0  0  0  0
 26 31  2  0  0  0  0
 26 27  1  0  0  0  0
 27 28  2  0  0  0  0
 27 55  1  0  0  0  0
 28 29  1  0  0  0  0
 28 44  1  0  0  0  0
 29 30  2  0  0  0  0
 29 33  1  0  0  0  0
 30 31  1  0  0  0  0
 30 32  1  0  0  0  0
 31 56  1  0  0  0  0
 32 57  1  0  0  0  0
 33 34  2  0  0  0  0
 33 35  1  0  0  0  0
 35 36  1  0  0  0  0
 35 58  1  0  0  0  0
 35 59  1  0  0  0  0
 36 37  1  0  0  0  0
 36 60  1  0  0  0  0
 36 61  1  0  0  0  0
 37 42  2  0  0  0  0
 37 38  1  0  0  0  0
 38 39  2  0  0  0  0
 38 62  1  0  0  0  0
 39 40  1  0  0  0  0
 39 63  1  0  0  0  0
 40 41  2  0  0  0  0
 40 43  1  0  0  0  0
 41 42  1  0  0  0  0
 41 64  1  0  0  0  0
 42 65  1  0  0  0  0
 43 66  1  0  0  0  0
 44 67  1  0  0  0  0
 45 46  1  0  0  0  0
 45 68  1  0  0  0  0
 45 69  1  0  0  0  0
 46 70  1  0  0  0  0
 47 71  1  0  0  0  0
 48 72  1  0  0  0  0
 49 73  1  0  0  0  0
 50 74  1  0  0  0  0
 51 75  1  0  0  0  0
M  END
>  <cansmi>
OC[C@@H]1O[C@H](Oc2cc(O)c(c(c2)O)C(=O)CCc2ccc(cc2)O)[C@@H]([C@@H]([C@@H]1O)O)O[C@@H]1O[C@@H](C)[C@H]([C@@H]([C@@H]1O)O)O

>  <HBA2>
14

>  <HBD>
9

>  <logP>
-1.3506

>  <TPSA>
236.06

>  <MW>
582.55

$$$$
ZINC03872446
 OpenBabel02121623173D

 28 31  0  0  0  0  0  0  0  0999 V2000
   -0.0167    1.3830    0.0096 C   0  0  0  0  0  0  0  0  0  0  0  0
    1.1863    2.0770    0.0019 C   0  0  0  0  0  0  0  0  0  0  0  0
    2.3926    1.3452   -0.0012 C   0  0  0  0  0  0  0  0  0  0  0  0
    3.6485    2.1050    0.0027 C   0  0  0  0  0  0  0  0  0  0  0  0
    4.8466    1.3869   -0.1987 C   0  0  0  0  0  0  0  0  0  0  0  0
    6.0497    2.0805   -0.1986 C   0  0  0  0  0  0  0  0  0  0  0  0
    6.0379    3.4562   -0.0202 C   0  0  0  0  0  0  0  0  0  0  0  0
    4.8480    4.1611    0.1666 C   0  0  0  0  0  0  0  0  0  0  0  0
    3.6323    3.4858    0.1873 C   0  0  0  0  0  0  0  0  0  0  0  0
    2.4525    4.1170    0.4119 O   0  0  0  0  0  0  0  0  0  0  0  0
    1.3009    3.5438   -0.0161 C   0  0  0  0  0  0  0  0  0  0  0  0
    0.3774    4.2309   -0.4091 O   0  0  0  0  0  0  0  0  0  0  0  0
    4.8772    5.5099    0.3289 O   0  0  0  0  0  0  0  0  0  0  0  0
    7.2160    4.1351   -0.0270 O   0  0  0  0  0  0  0  0  0  0  0  0
    4.7207   -0.0622   -0.4200 C   0  0  0  0  0  0  0  0  0  0  0  0
    5.6013   -0.6796   -0.9881 O   0  0  0  0  0  0  0  0  0  0  0  0
    3.6072   -0.6979    0.0201 O   0  0  0  0  0  0  0  0  0  0  0  0
    2.4165   -0.0480   -0.0047 C   0  0  0  0  0  0  0  0  0  0  0  0
    1.1993   -0.7211   -0.0097 C   0  0  0  0  0  0  0  0  0  0  0  0
    0.0021   -0.0041    0.0020 C   0  0  0  0  0  0  0  0  0  0  0  0
   -1.1763   -0.6825    0.0061 O   0  0  0  0  0  0  0  0  0  0  0  0
    1.1759   -2.0796   -0.0262 O   0  0  0  0  0  0  0  0  0  0  0  0
   -0.9555    1.9167    0.0260 H   0  0  0  0  0  0  0  0  0  0  0  0
    6.9834    1.5552   -0.3355 H   0  0  0  0  0  0  0  0  0  0  0  0
    4.8118    6.0071   -0.4979 H   0  0  0  0  0  0  0  0  0  0  0  0
    7.4868    4.4442   -0.9023 H   0  0  0  0  0  0  0  0  0  0  0  0
   -1.5229   -0.8740   -0.8761 H   0  0  0  0  0  0  0  0  0  0  0  0
    1.1714   -2.4835    0.8524 H   0  0  0  0  0  0  0  0  0  0  0  0
  1 20  2  0  0  0  0
  1  2  1  0  0  0  0
  1 23  1  0  0  0  0
  2 11  1  0  0  0  0
  2  3  2  0  0  0  0
  3 18  1  0  0  0  0
  3  4  1  0  0  0  0
  4  9  2  0  0  0  0
  4  5  1  0  0  0  0
  5  6  2  0  0  0  0
  5 15  1  0  0  0  0
  6  7  1  0  0  0  0
  6 24  1  0  0  0  0
  7  8  2  0  0  0  0
  7 14  1  0  0  0  0
  8  9  1  0  0  0  0
  8 13  1  0  0  0  0
  9 10  1  0  0  0  0
 10 11  1  0  0  0  0
 11 12  2  0  0  0  0
 13 25  1  0  0  0  0
 14 26  1  0  0  0  0
 15 16  2  0  0  0  0
 15 17  1  0  0  0  0
 17 18  1  0  0  0  0
 18 19  2  0  0  0  0
 19 20  1  0  0  0  0
 19 22  1  0  0  0  0
 20 21  1  0  0  0  0
 21 27  1  0  0  0  0
 22 28  1  0  0  0  0
M  END
>  <cansmi>
Oc1cc2c(=O)oc3c4c2c(c1O)oc(=O)c4cc(c3O)O

>  <HBA2>
8

>  <HBD>
4

>  <logP>
1.3128

>  <TPSA>
141.34

>  <MW>
302.193

$$$$
ZINC02566155
 OpenBabel02121623173D

 36 38  0  0  0  0  0  0  0  0999 V2000
   -3.1569    6.4893    0.0668 C   0  0  0  0  0  0  0  0  0  0  0  0
   -1.7386    6.6632    0.0545 O   0  0  0  0  0  0  0  0  0  0  0  0
   -0.9798    5.5377    0.0410 C   0  0  0  0  0  0  0  0  0  0  0  0
   -1.5897    4.2986    0.0397 C   0  0  0  0  0  0  0  0  0  0  0  0
   -0.8193    3.1425    0.0259 C   0  0  0  0  0  0  0  0  0  0  0  0
    0.5850    3.2417    0.0133 C   0  0  0  0  0  0  0  0  0  0  0  0
    1.0752    1.8564    0.0018 C   0  0  0  0  0  0  0  0  0  0  0  0
   -0.0126    1.0758    0.0080 C   0  0  0  0  0  0  0  0  0  0  0  0
   -1.1263    1.8300    0.0168 O   0  0  0  0  0  0  0  0  0  0  0  0
    1.2022    4.4866    0.0143 C   0  0  0  0  0  0  0  0  0  0  0  0
    0.4220    5.6403    0.0289 C   0  0  0  0  0  0  0  0  0  0  0  0
    1.0664    6.9691    0.0316 C   0  0  0  0  0  0  0  0  0  0  0  0
    0.3826    7.9779    0.0444 O   0  0  0  0  0  0  0  0  0  0  0  0
    2.4740    7.0707    0.0195 C   0  0  0  0  0  0  0  0  0  0  0  0
    3.0680    8.2955    0.0220 C   0  0  0  0  0  0  0  0  0  0  0  0
    4.5396    8.4018    0.0093 C   0  0  0  0  0  0  0  0  0  0  0  0
    5.3267    7.2473    0.0005 C   0  0  0  0  0  0  0  0  0  0  0  0
    6.7016    7.3544   -0.0171 C   0  0  0  0  0  0  0  0  0  0  0  0
    7.3020    8.6012   -0.0140 C   0  0  0  0  0  0  0  0  0  0  0  0
    6.5289    9.7489    0.0004 C   0  0  0  0  0  0  0  0  0  0  0  0
    5.1528    9.6573    0.0119 C   0  0  0  0  0  0  0  0  0  0  0  0
    2.3097    9.4144    0.0362 O   0  0  0  0  0  0  0  0  0  0  0  0
   -3.6470    7.4741    0.0770 H   0  0  0  0  0  0  0  0  0  0  0  0
   -3.4493    5.9249    0.9645 H   0  0  0  0  0  0  0  0  0  0  0  0
   -3.4661    5.9351   -0.8317 H   0  0  0  0  0  0  0  0  0  0  0  0
   -2.6674    4.2282    0.0490 H   0  0  0  0  0  0  0  0  0  0  0  0
    2.1056    1.5330   -0.0092 H   0  0  0  0  0  0  0  0  0  0  0  0
    0.0021   -0.0041    0.0020 H   0  0  0  0  0  0  0  0  0  0  0  0
    2.2797    4.5591    0.0045 H   0  0  0  0  0  0  0  0  0  0  0  0
    2.8851    6.5741    0.9108 H   0  0  0  0  0  0  0  0  0  0  0  0
    4.8595    6.2736    0.0027 H   0  0  0  0  0  0  0  0  0  0  0  0
    7.3113    6.4629   -0.0284 H   0  0  0  0  0  0  0  0  0  0  0  0
    8.3792    8.6790   -0.0233 H   0  0  0  0  0  0  0  0  0  0  0  0
    7.0042   10.7187    0.0024 H   0  0  0  0  0  0  0  0  0  0  0  0
    4.5507   10.5538    0.0232 H   0  0  0  0  0  0  0  0  0  0  0  0
    2.8689    6.5857   -0.8854 H   0  0  0  0  0  0  0  0  0  0  0  0
  1  2  1  0  0  0  0
  1 23  1  0  0  0  0
  1 24  1  0  0  0  0
  1 25  1  0  0  0  0
  2  3  1  0  0  0  0
  3 11  2  0  0  0  0
  3  4  1  0  0  0  0
  4  5  2  0  0  0  0
  4 26  1  0  0  0  0
  5  9  1  0  0  0  0
  5  6  1  0  0  0  0
  6  7  1  0  0  0  0
  6 10  2  0  0  0  0
  7  8  2  0  0  0  0
  7 27  1  0  0  0  0
  8  9  1  0  0  0  0
  8 28  1  0  0  0  0
 10 11  1  0  0  0  0
 10 29  1  0  0  0  0
 11 12  1  0  0  0  0
 12 13  2  0  0  0  0
 12 14  1  0  0  0  0
 14 15  1  0  0  0  0
 14 30  1  0  0  0  0
 14 36  1  0  0  0  0
 15 16  1  0  0  0  0
 15 22  2  0  0  0  0
 16 21  2  0  0  0  0
 16 17  1  0  0  0  0
 17 18  2  0  0  0  0
 17 31  1  0  0  0  0
 18 19  1  0  0  0  0
 18 32  1  0  0  0  0
 19 20  2  0  0  0  0
 19 33  1  0  0  0  0
 20 21  1  0  0  0  0
 20 34  1  0  0  0  0
 21 35  1  0  0  0  0
M  END
>  <cansmi>
COc1cc2occc2cc1C(=O)CC(=O)c1ccccc1

>  <HBA2>
4

>  <HBD>
0

>  <logP>
3.8971

>  <TPSA>
56.51

>  <MW>
294.301

$$$$
ZINC04247581
 OpenBabel02121623173D

 48 51  0  0  1  0  0  0  0  0999 V2000
   -2.7587   10.6956   -1.9135 C   0  0  0  0  0  0  0  0  0  0  0  0
   -1.5358   11.3461   -1.8547 C   0  0  0  0  0  0  0  0  0  0  0  0
   -0.4366   10.7318   -1.2897 C   0  0  0  0  0  0  0  0  0  0  0  0
   -0.5462    9.4491   -0.7704 C   0  0  0  0  0  0  0  0  0  0  0  0
   -1.7861    8.7923   -0.8272 C   0  0  0  0  0  0  0  0  0  0  0  0
   -2.8906    9.4216   -1.4038 C   0  0  0  0  0  0  0  0  0  0  0  0
   -1.9155    7.4155   -0.2609 C   0  0  0  0  0  0  0  0  0  0  0  0
   -2.8772    6.7023   -0.4555 O   0  0  0  0  0  0  0  0  0  0  0  0
   -0.7413    6.9784    0.5924 C   0  0  2  0  0  0  0  0  0  0  0  0
   -0.8127    7.3975    1.4975 H   0  0  0  0  0  0  0  0  0  0  0  0
    0.5369    7.4306   -0.1323 C   0  0  1  0  0  0  0  0  0  0  0  0
    0.5476    7.0104   -1.1380 H   0  0  0  0  0  0  0  0  0  0  0  0
    0.5402    8.8518   -0.2172 O   0  0  0  0  0  0  0  0  0  0  0  0
    1.7300    6.9248    0.6292 C   0  0  0  0  0  0  0  0  0  0  0  0
    1.6729    5.7030    1.1844 C   0  0  0  0  0  0  0  0  0  0  0  0
    0.4586    4.8852    1.0136 C   0  0  2  0  0  0  0  0  0  0  0  0
   -0.7101    5.4823    0.7378 C   0  0  0  0  0  0  0  0  0  0  0  0
   -1.8410    4.7514    0.5933 O   0  0  0  0  0  0  0  0  0  0  0  0
    0.5289    3.3865    1.1543 C   0  0  1  0  0  0  0  0  0  0  0  0
   -0.4746    2.9671    1.0815 H   0  0  0  0  0  0  0  0  0  0  0  0
    1.4054    2.8096    0.0396 C   0  0  1  0  0  0  0  0  0  0  0  0
    2.3974    3.2589    0.0867 H   0  0  0  0  0  0  0  0  0  0  0  0
    1.5210    1.2934    0.2245 C   0  0  1  0  0  0  0  0  0  0  0  0
    2.1879    0.8833   -0.5339 H   0  0  0  0  0  0  0  0  0  0  0  0
    2.0869    0.9998    1.6173 C   0  0  1  0  0  0  0  0  0  0  0  0
    3.0926    1.4127    1.6963 H   0  0  0  0  0  0  0  0  0  0  0  0
    1.1832    1.6484    2.6719 C   0  0  1  0  0  0  0  0  0  0  0  0
    1.6037    1.4804    3.6633 H   0  0  0  0  0  0  0  0  0  0  0  0
    1.0941    3.0529    2.4237 O   0  0  0  0  0  0  0  0  0  0  0  0
   -0.2133    1.0277    2.5977 C   0  0  0  0  0  0  0  0  0  0  0  0
   -1.0110    1.5193    3.6766 O   0  0  0  0  0  0  0  0  0  0  0  0
    2.1317   -0.4131    1.8265 O   0  0  0  0  0  0  0  0  0  0  0  0
    0.2288    0.6965    0.0980 O   0  0  0  0  0  0  0  0  0  0  0  0
    0.8131    3.0920   -1.2299 O   0  0  0  0  0  0  0  0  0  0  0  0
    2.7270    5.2217    1.8939 O   0  0  0  0  0  0  0  0  0  0  0  0
   -3.6099   11.1880   -2.3601 H   0  0  0  0  0  0  0  0  0  0  0  0
   -1.4424   12.3447   -2.2552 H   0  0  0  0  0  0  0  0  0  0  0  0
    0.5102   11.2501   -1.2511 H   0  0  0  0  0  0  0  0  0  0  0  0
   -3.8426    8.9137   -1.4502 H   0  0  0  0  0  0  0  0  0  0  0  0
    2.6159    7.5341    0.7318 H   0  0  0  0  0  0  0  0  0  0  0  0
    0.6230    5.1386    0.0603 H   0  0  0  0  0  0  0  0  0  0  0  0
   -0.6799    1.2950    1.6496 H   0  0  0  0  0  0  0  0  0  0  0  0
   -0.1330   -0.0570    2.6701 H   0  0  0  0  0  0  0  0  0  0  0  0
   -1.9114    1.1670    3.6923 H   0  0  0  0  0  0  0  0  0  0  0  0
    2.6827   -0.8878    1.1893 H   0  0  0  0  0  0  0  0  0  0  0  0
    0.2270   -0.2643    0.2069 H   0  0  0  0  0  0  0  0  0  0  0  0
    1.3149    2.7506   -1.9827 H   0  0  0  0  0  0  0  0  0  0  0  0
    2.3417    6.4382    0.0055 H   0  0  0  0  0  0  0  0  0  0  0  0
  1  6  2  0  0  0  0
  1  2  1  0  0  0  0
  1 36  1  0  0  0  0
  2  3  2  0  0  0  0
  2 37  1  0  0  0  0
  3  4  1  0  0  0  0
  3 38  1  0  0  0  0
  4 13  1  0  0  0  0
  4  5  2  0  0  0  0
  5  6  1  0  0  0  0
  5  7  1  0  0  0  0
  6 39  1  0  0  0  0
  7  8  2  0  0  0  0
  7  9  1  0  0  0  0
  9 11  1  0  0  0  0
  9 17  1  0  0  0  0
  9 10  1  1  0  0  0
 11 12  1  6  0  0  0
 11 13  1  0  0  0  0
 11 14  1  0  0  0  0
 14 40  1  0  0  0  0
 14 48  1  0  0  0  0
 14 15  1  0  0  0  0
 15 16  1  0  0  0  0
 15 35  2  0  0  0  0
 16 19  1  0  0  0  0
 16 17  1  0  0  0  0
 16 41  1  6  0  0  0
 17 18  2  0  0  0  0
 19 20  1  6  0  0  0
 19 29  1  0  0  0  0
 19 21  1  0  0  0  0
 21 22  1  1  0  0  0
 21 23  1  0  0  0  0
 21 34  1  0  0  0  0
 23 24  1  6  0  0  0
 23 25  1  0  0  0  0
 23 33  1  0  0  0  0
 25 26  1  1  0  0  0
 25 27  1  0  0  0  0
 25 32  1  0  0  0  0
 27 28  1  1  0  0  0
 27 29  1  0  0  0  0
 27 30  1  0  0  0  0
 30 31  1  0  0  0  0
 30 42  1  0  0  0  0
 30 43  1  0  0  0  0
 31 44  1  0  0  0  0
 32 45  1  0  0  0  0
 33 46  1  0  0  0  0
 34 47  1  0  0  0  0
M  END
>  <cansmi>
OC[C@@H]1O[C@@H]([C@@H]2C(=O)C[C@H]3[C@H](C2=O)C(=O)c2c(O3)cccc2)[C@@H]([C@@H]([C@@H]1O)O)O

>  <HBA2>
9

>  <HBD>
4

>  <logP>
-1.753

>  <TPSA>
150.59

>  <MW>
392.357

$$$$
ZINC04247587
 OpenBabel02121623173D

 48 51  0  0  1  0  0  0  0  0999 V2000
    6.7919    7.1349    1.7195 C   0  0  0  0  0  0  0  0  0  0  0  0
    7.0431    6.9708    0.3661 C   0  0  0  0  0  0  0  0  0  0  0  0
    6.0273    6.6275   -0.5031 C   0  0  0  0  0  0  0  0  0  0  0  0
    4.7359    6.4430   -0.0268 C   0  0  0  0  0  0  0  0  0  0  0  0
    4.4809    6.6200    1.3425 C   0  0  0  0  0  0  0  0  0  0  0  0
    5.5168    6.9616    2.2135 C   0  0  0  0  0  0  0  0  0  0  0  0
    3.1040    6.4497    1.8366 C   0  0  0  0  0  0  0  0  0  0  0  0
    2.7883    6.7844    2.9589 O   0  0  0  0  0  0  0  0  0  0  0  0
    2.1004    5.8390    0.8832 C   0  0  1  0  0  0  0  0  0  0  0  0
    1.1751    6.0907    1.1670 H   0  0  0  0  0  0  0  0  0  0  0  0
    2.3878    6.3746   -0.5259 C   0  0  1  0  0  0  0  0  0  0  0  0
    2.2061    7.4484   -0.5696 H   0  0  0  0  0  0  0  0  0  0  0  0
    3.7443    6.0948   -0.8759 O   0  0  0  0  0  0  0  0  0  0  0  0
    1.4844    5.6580   -1.5031 C   0  0  0  0  0  0  0  0  0  0  0  0
    1.2180    4.3603   -1.3223 C   0  0  0  0  0  0  0  0  0  0  0  0
    1.8151    3.6441   -0.1812 C   0  0  1  0  0  0  0  0  0  0  0  0
    2.2311    4.3397    0.8847 C   0  0  0  0  0  0  0  0  0  0  0  0
    2.7676    3.7009    1.9515 O   0  0  0  0  0  0  0  0  0  0  0  0
    1.9506    2.1435   -0.2110 C   0  0  1  0  0  0  0  0  0  0  0  0
    2.5582    1.8164    0.6328 H   0  0  0  0  0  0  0  0  0  0  0  0
    0.5628    1.5037   -0.1194 C   0  0  1  0  0  0  0  0  0  0  0  0
   -0.0583    1.8618   -0.9403 H   0  0  0  0  0  0  0  0  0  0  0  0
    0.7041   -0.0188   -0.2108 C   0  0  1  0  0  0  0  0  0  0  0  0
   -0.2845   -0.4779   -0.2025 H   0  0  0  0  0  0  0  0  0  0  0  0
    1.4241   -0.3764   -1.5147 C   0  0  1  0  0  0  0  0  0  0  0  0
    0.8203   -0.0562   -2.3638 H   0  0  0  0  0  0  0  0  0  0  0  0
    2.7786    0.3361   -1.5525 C   0  0  1  0  0  0  0  0  0  0  0  0
    3.2771    0.1194   -2.4973 H   0  0  0  0  0  0  0  0  0  0  0  0
    2.5774    1.7457   -1.4321 O   0  0  0  0  0  0  0  0  0  0  0  0
    3.6466   -0.1563   -0.3927 C   0  0  0  0  0  0  0  0  0  0  0  0
    4.9664    0.3749   -0.5265 O   0  0  0  0  0  0  0  0  0  0  0  0
    1.6260   -1.7897   -1.5766 O   0  0  0  0  0  0  0  0  0  0  0  0
    1.4622   -0.4963    0.9024 O   0  0  0  0  0  0  0  0  0  0  0  0
   -0.0427    1.8531    1.1269 O   0  0  0  0  0  0  0  0  0  0  0  0
    0.4006    3.7046   -2.1871 O   0  0  0  0  0  0  0  0  0  0  0  0
    7.5974    7.3997    2.3886 H   0  0  0  0  0  0  0  0  0  0  0  0
    8.0446    7.1128   -0.0124 H   0  0  0  0  0  0  0  0  0  0  0  0
    6.2371    6.5018   -1.5550 H   0  0  0  0  0  0  0  0  0  0  0  0
    5.3205    7.0888    3.2679 H   0  0  0  0  0  0  0  0  0  0  0  0
    1.0572    6.1900   -2.3403 H   0  0  0  0  0  0  0  0  0  0  0  0
    2.6388    4.0609   -0.5656 H   0  0  0  0  0  0  0  0  0  0  0  0
    3.2149    0.1768    0.5511 H   0  0  0  0  0  0  0  0  0  0  0  0
    3.6900   -1.2453   -0.4081 H   0  0  0  0  0  0  0  0  0  0  0  0
    5.5728    0.1035    0.1762 H   0  0  0  0  0  0  0  0  0  0  0  0
    0.8083   -2.3053   -1.5522 H   0  0  0  0  0  0  0  0  0  0  0  0
    1.5909   -1.4547    0.9085 H   0  0  0  0  0  0  0  0  0  0  0  0
   -0.9244    1.4770    1.2549 H   0  0  0  0  0  0  0  0  0  0  0  0
    2.0340    5.2732   -2.2446 H   0  0  0  0  0  0  0  0  0  0  0  0
  1  6  2  0  0  0  0
  1  2  1  0  0  0  0
  1 36  1  0  0  0  0
  2  3  2  0  0  0  0
  2 37  1  0  0  0  0
  3  4  1  0  0  0  0
  3 38  1  0  0  0  0
  4 13  1  0  0  0  0
  4  5  2  0  0  0  0
  5  6  1  0  0  0  0
  5  7  1  0  0  0  0
  6 39  1  0  0  0  0
  7  8  2  0  0  0  0
  7  9  1  0  0  0  0
  9 11  1  0  0  0  0
  9 17  1  0  0  0  0
  9 10  1  1  0  0  0
 11 12  1  6  0  0  0
 11 13  1  0  0  0  0
 11 14  1  0  0  0  0
 14 40  1  0  0  0  0
 14 48  1  0  0  0  0
 14 15  1  0  0  0  0
 15 16  1  0  0  0  0
 15 35  2  0  0  0  0
 16 19  1  0  0  0  0
 16 17  1  0  0  0  0
 16 41  1  6  0  0  0
 17 18  2  0  0  0  0
 19 20  1  1  0  0  0
 19 29  1  0  0  0  0
 19 21  1  0  0  0  0
 21 22  1  6  0  0  0
 21 23  1  0  0  0  0
 21 34  1  0  0  0  0
 23 24  1  1  0  0  0
 23 25  1  0  0  0  0
 23 33  1  0  0  0  0
 25 26  1  6  0  0  0
 25 27  1  0  0  0  0
 25 32  1  0  0  0  0
 27 28  1  6  0  0  0
 27 29  1  0  0  0  0
 27 30  1  0  0  0  0
 30 31  1  0  0  0  0
 30 42  1  0  0  0  0
 30 43  1  0  0  0  0
 31 44  1  0  0  0  0
 32 45  1  0  0  0  0
 33 46  1  0  0  0  0
 34 47  1  0  0  0  0
M  END
>  <cansmi>
OC[C@@H]1O[C@@H]([C@H]2C(=O)C[C@H]3[C@@H](C2=O)C(=O)c2c(O3)cccc2)[C@@H]([C@@H]([C@@H]1O)O)O

>  <HBA2>
9

>  <HBD>
4

>  <logP>
-1.753

>  <TPSA>
150.59

>  <MW>
392.357

$$$$
ZINC04247588
 OpenBabel02121623173D

 48 51  0  0  1  0  0  0  0  0999 V2000
   -4.1112    3.3894   -0.5386 C   0  0  0  0  0  0  0  0  0  0  0  0
   -3.8615    4.7317   -0.2983 C   0  0  0  0  0  0  0  0  0  0  0  0
   -2.5815    5.1743   -0.0327 C   0  0  0  0  0  0  0  0  0  0  0  0
   -1.5253    4.2731   -0.0022 C   0  0  0  0  0  0  0  0  0  0  0  0
   -1.7809    2.9125   -0.2424 C   0  0  0  0  0  0  0  0  0  0  0  0
   -3.0788    2.4765   -0.5090 C   0  0  0  0  0  0  0  0  0  0  0  0
   -0.6593    1.9598   -0.1854 C   0  0  0  0  0  0  0  0  0  0  0  0
   -0.8464    0.7613   -0.1819 O   0  0  0  0  0  0  0  0  0  0  0  0
    0.7368    2.5410   -0.1378 C   0  0  2  0  0  0  0  0  0  0  0  0
    1.3672    1.8634    0.2408 H   0  0  0  0  0  0  0  0  0  0  0  0
    0.7057    3.7942    0.7477 C   0  0  2  0  0  0  0  0  0  0  0  0
    0.4763    3.5175    1.7767 H   0  0  0  0  0  0  0  0  0  0  0  0
   -0.2707    4.7088    0.2464 O   0  0  0  0  0  0  0  0  0  0  0  0
    2.0615    4.4592    0.6817 C   0  0  0  0  0  0  0  0  0  0  0  0
    2.7304    4.4745   -0.4761 C   0  0  0  0  0  0  0  0  0  0  0  0
    2.1347    3.8534   -1.6723 C   0  0  1  0  0  0  0  0  0  0  0  0
    1.1839    2.9223   -1.5231 C   0  0  0  0  0  0  0  0  0  0  0  0
    0.6307    2.3297   -2.6078 O   0  0  0  0  0  0  0  0  0  0  0  0
    2.5906    4.2620   -3.0493 C   0  0  1  0  0  0  0  0  0  0  0  0
    2.1106    3.6276   -3.7943 H   0  0  0  0  0  0  0  0  0  0  0  0
    2.2090    5.7232   -3.3007 C   0  0  1  0  0  0  0  0  0  0  0  0
    2.6557    6.3538   -2.5320 H   0  0  0  0  0  0  0  0  0  0  0  0
    2.7284    6.1487   -4.6775 C   0  0  1  0  0  0  0  0  0  0  0  0
    2.5091    7.2041   -4.8397 H   0  0  0  0  0  0  0  0  0  0  0  0
    4.2430    5.9260   -4.7308 C   0  0  1  0  0  0  0  0  0  0  0  0
    4.7308    6.5607   -3.9910 H   0  0  0  0  0  0  0  0  0  0  0  0
    4.5460    4.4571   -4.4242 C   0  0  1  0  0  0  0  0  0  0  0  0
    5.6249    4.3020   -4.4186 H   0  0  0  0  0  0  0  0  0  0  0  0
    4.0093    4.1186   -3.1437 O   0  0  0  0  0  0  0  0  0  0  0  0
    3.9085    3.5701   -5.4955 C   0  0  0  0  0  0  0  0  0  0  0  0
    4.3084    2.2136   -5.2907 O   0  0  0  0  0  0  0  0  0  0  0  0
    4.7281    6.2528   -6.0346 O   0  0  0  0  0  0  0  0  0  0  0  0
    2.0926    5.3671   -5.6908 O   0  0  0  0  0  0  0  0  0  0  0  0
    0.7869    5.8584   -3.2641 O   0  0  0  0  0  0  0  0  0  0  0  0
    3.9539    5.0608   -0.5494 O   0  0  0  0  0  0  0  0  0  0  0  0
   -5.1172    3.0581   -0.7498 H   0  0  0  0  0  0  0  0  0  0  0  0
   -4.6775    5.4388   -0.3196 H   0  0  0  0  0  0  0  0  0  0  0  0
   -2.4011    6.2230    0.1521 H   0  0  0  0  0  0  0  0  0  0  0  0
   -3.2727    1.4306   -0.6958 H   0  0  0  0  0  0  0  0  0  0  0  0
    2.4865    4.9179    1.5622 H   0  0  0  0  0  0  0  0  0  0  0  0
    2.6950    3.0911   -1.3482 H   0  0  0  0  0  0  0  0  0  0  0  0
    2.8230    3.6429   -5.4288 H   0  0  0  0  0  0  0  0  0  0  0  0
    4.2348    3.9002   -6.4818 H   0  0  0  0  0  0  0  0  0  0  0  0
    3.9407    1.5935   -5.9352 H   0  0  0  0  0  0  0  0  0  0  0  0
    4.5655    7.1694   -6.2964 H   0  0  0  0  0  0  0  0  0  0  0  0
    2.3749    5.5840   -6.5899 H   0  0  0  0  0  0  0  0  0  0  0  0
    0.4736    6.7605   -3.4160 H   0  0  0  0  0  0  0  0  0  0  0  0
    1.9486    5.4230    0.4401 H   0  0  0  0  0  0  0  0  0  0  0  0
  1  6  2  0  0  0  0
  1  2  1  0  0  0  0
  1 36  1  0  0  0  0
  2  3  2  0  0  0  0
  2 37  1  0  0  0  0
  3  4  1  0  0  0  0
  3 38  1  0  0  0  0
  4 13  1  0  0  0  0
  4  5  2  0  0  0  0
  5  6  1  0  0  0  0
  5  7  1  0  0  0  0
  6 39  1  0  0  0  0
  7  8  2  0  0  0  0
  7  9  1  0  0  0  0
  9 11  1  0  0  0  0
  9 17  1  0  0  0  0
  9 10  1  1  0  0  0
 11 12  1  1  0  0  0
 11 13  1  0  0  0  0
 11 14  1  0  0  0  0
 14 40  1  0  0  0  0
 14 48  1  0  0  0  0
 14 15  1  0  0  0  0
 15 16  1  0  0  0  0
 15 35  2  0  0  0  0
 16 19  1  0  0  0  0
 16 17  1  0  0  0  0
 16 41  1  1  0  0  0
 17 18  2  0  0  0  0
 19 20  1  6  0  0  0
 19 29  1  0  0  0  0
 19 21  1  0  0  0  0
 21 22  1  1  0  0  0
 21 23  1  0  0  0  0
 21 34  1  0  0  0  0
 23 24  1  6  0  0  0
 23 25  1  0  0  0  0
 23 33  1  0  0  0  0
 25 26  1  1  0  0  0
 25 27  1  0  0  0  0
 25 32  1  0  0  0  0
 27 28  1  1  0  0  0
 27 29  1  0  0  0  0
 27 30  1  0  0  0  0
 30 31  1  0  0  0  0
 30 42  1  0  0  0  0
 30 43  1  0  0  0  0
 31 44  1  0  0  0  0
 32 45  1  0  0  0  0
 33 46  1  0  0  0  0
 34 47  1  0  0  0  0
M  END
>  <cansmi>
OC[C@@H]1O[C@@H]([C@H]2C(=O)C[C@@H]3[C@H](C2=O)C(=O)c2c(O3)cccc2)[C@@H]([C@@H]([C@@H]1O)O)O

>  <HBA2>
9

>  <HBD>
4

>  <logP>
-1.753

>  <TPSA>
150.59

>  <MW>
392.357

$$$$
ZINC04247590
 OpenBabel02121623173D

 48 51  0  0  1  0  0  0  0  0999 V2000
    8.1038    2.2300   -1.9792 C   0  0  0  0  0  0  0  0  0  0  0  0
    7.9070    0.8609   -1.8865 C   0  0  0  0  0  0  0  0  0  0  0  0
    6.6501    0.3442   -1.6441 C   0  0  0  0  0  0  0  0  0  0  0  0
    5.5653    1.1966   -1.4901 C   0  0  0  0  0  0  0  0  0  0  0  0
    5.7647    2.5832   -1.5885 C   0  0  0  0  0  0  0  0  0  0  0  0
    7.0406    3.0948   -1.8320 C   0  0  0  0  0  0  0  0  0  0  0  0
    4.6102    3.4913   -1.4319 C   0  0  0  0  0  0  0  0  0  0  0  0
    4.7418    4.6886   -1.2889 O   0  0  0  0  0  0  0  0  0  0  0  0
    3.2492    2.8236   -1.4616 C   0  0  1  0  0  0  0  0  0  0  0  0
    2.9942    2.6286   -2.4087 H   0  0  0  0  0  0  0  0  0  0  0  0
    3.3770    1.5379   -0.6284 C   0  0  2  0  0  0  0  0  0  0  0  0
    3.7175    1.7930    0.3751 H   0  0  0  0  0  0  0  0  0  0  0  0
    4.3331    0.6815   -1.2443 O   0  0  0  0  0  0  0  0  0  0  0  0
    2.0252    0.8907   -0.5179 C   0  0  0  0  0  0  0  0  0  0  0  0
    0.9449    1.6729   -0.3760 C   0  0  0  0  0  0  0  0  0  0  0  0
    1.1101    3.1361   -0.3091 C   0  0  2  0  0  0  0  0  0  0  0  0
    2.2071    3.7049   -0.8302 C   0  0  0  0  0  0  0  0  0  0  0  0
    2.3735    5.0482   -0.7882 O   0  0  0  0  0  0  0  0  0  0  0  0
    0.0518    3.9886    0.3421 C   0  0  1  0  0  0  0  0  0  0  0  0
    0.4113    5.0143    0.4249 H   0  0  0  0  0  0  0  0  0  0  0  0
   -1.2209    3.9609   -0.5084 C   0  0  1  0  0  0  0  0  0  0  0  0
   -1.5583    2.9310   -0.6256 H   0  0  0  0  0  0  0  0  0  0  0  0
   -2.3104    4.7801    0.1902 C   0  0  1  0  0  0  0  0  0  0  0  0
   -3.2362    4.7185   -0.3819 H   0  0  0  0  0  0  0  0  0  0  0  0
   -2.5378    4.2140    1.5952 C   0  0  1  0  0  0  0  0  0  0  0  0
   -2.9018    3.1893    1.5205 H   0  0  0  0  0  0  0  0  0  0  0  0
   -1.2142    4.2320    2.3644 C   0  0  1  0  0  0  0  0  0  0  0  0
   -1.3608    3.7906    3.3503 H   0  0  0  0  0  0  0  0  0  0  0  0
   -0.2365    3.4777    1.6452 O   0  0  0  0  0  0  0  0  0  0  0  0
   -0.7329    5.6761    2.5181 C   0  0  0  0  0  0  0  0  0  0  0  0
    0.4182    5.7071    3.3642 O   0  0  0  0  0  0  0  0  0  0  0  0
   -3.5007    5.0152    2.2829 O   0  0  0  0  0  0  0  0  0  0  0  0
   -1.8964    6.1446    0.2840 O   0  0  0  0  0  0  0  0  0  0  0  0
   -0.9488    4.5234   -1.7935 O   0  0  0  0  0  0  0  0  0  0  0  0
   -0.2932    1.1199   -0.2889 O   0  0  0  0  0  0  0  0  0  0  0  0
    9.0932    2.6202   -2.1669 H   0  0  0  0  0  0  0  0  0  0  0  0
    8.7460    0.1914   -2.0056 H   0  0  0  0  0  0  0  0  0  0  0  0
    6.5106   -0.7245   -1.5741 H   0  0  0  0  0  0  0  0  0  0  0  0
    7.1937    4.1614   -1.9043 H   0  0  0  0  0  0  0  0  0  0  0  0
    1.9251   -0.1840   -0.5556 H   0  0  0  0  0  0  0  0  0  0  0  0
    0.9045    3.0353   -1.2825 H   0  0  0  0  0  0  0  0  0  0  0  0
   -0.4750    6.0793    1.5388 H   0  0  0  0  0  0  0  0  0  0  0  0
   -1.5261    6.2782    2.9614 H   0  0  0  0  0  0  0  0  0  0  0  0
    0.7782    6.5933    3.5062 H   0  0  0  0  0  0  0  0  0  0  0  0
   -4.3635    5.0530    1.8479 H   0  0  0  0  0  0  0  0  0  0  0  0
   -2.5400    6.7221    0.7167 H   0  0  0  0  0  0  0  0  0  0  0  0
   -1.7127    4.5379   -2.3862 H   0  0  0  0  0  0  0  0  0  0  0  0
    1.8213    0.7069    0.4437 H   0  0  0  0  0  0  0  0  0  0  0  0
  1  6  2  0  0  0  0
  1  2  1  0  0  0  0
  1 36  1  0  0  0  0
  2  3  2  0  0  0  0
  2 37  1  0  0  0  0
  3  4  1  0  0  0  0
  3 38  1  0  0  0  0
  4 13  1  0  0  0  0
  4  5  2  0  0  0  0
  5  6  1  0  0  0  0
  5  7  1  0  0  0  0
  6 39  1  0  0  0  0
  7  8  2  0  0  0  0
  7  9  1  0  0  0  0
  9 11  1  0  0  0  0
  9 17  1  0  0  0  0
  9 10  1  6  0  0  0
 11 12  1  1  0  0  0
 11 13  1  0  0  0  0
 11 14  1  0  0  0  0
 14 40  1  0  0  0  0
 14 48  1  0  0  0  0
 14 15  1  0  0  0  0
 15 16  1  0  0  0  0
 15 35  2  0  0  0  0
 16 19  1  0  0  0  0
 16 17  1  0  0  0  0
 16 41  1  6  0  0  0
 17 18  2  0  0  0  0
 19 20  1  1  0  0  0
 19 29  1  0  0  0  0
 19 21  1  0  0  0  0
 21 22  1  6  0  0  0
 21 23  1  0  0  0  0
 21 34  1  0  0  0  0
 23 24  1  6  0  0  0
 23 25  1  0  0  0  0
 23 33  1  0  0  0  0
 25 26  1  6  0  0  0
 25 27  1  0  0  0  0
 25 32  1  0  0  0  0
 27 28  1  1  0  0  0
 27 29  1  0  0  0  0
 27 30  1  0  0  0  0
 30 31  1  0  0  0  0
 30 42  1  0  0  0  0
 30 43  1  0  0  0  0
 31 44  1  0  0  0  0
 32 45  1  0  0  0  0
 33 46  1  0  0  0  0
 34 47  1  0  0  0  0
M  END
>  <cansmi>
OC[C@@H]1O[C@@H]([C@@H]2C(=O)C[C@@H]3[C@@H](C2=O)C(=O)c2c(O3)cccc2)[C@@H]([C@@H]([C@@H]1O)O)O

>  <HBA2>
9

>  <HBD>
4

>  <logP>
-1.753

>  <TPSA>
150.59

>  <MW>
392.357

$$$$
ZINC00058188
 OpenBabel02121623173D

 36 38  0  0  0  0  0  0  0  0999 V2000
    1.2480    2.0169    0.0010 C   0  0  0  0  0  0  0  0  0  0  0  0
   -0.0163    1.3508    0.0095 O   0  0  0  0  0  0  0  0  0  0  0  0
    0.0021   -0.0041    0.0020 C   0  0  0  0  0  0  0  0  0  0  0  0
   -0.0056   -0.7049   -1.2066 C   0  0  0  0  0  0  0  0  0  0  0  0
   -0.0185   -0.3087   -2.6201 C   0  0  0  0  0  0  0  0  0  0  0  0
   -0.0097   -1.4474   -3.3259 C   0  0  0  0  0  0  0  0  0  0  0  0
    0.0126   -2.5056   -2.4967 O   0  0  0  0  0  0  0  0  0  0  0  0
    0.0193   -2.1088   -1.2093 C   0  0  0  0  0  0  0  0  0  0  0  0
    0.0402   -2.8012    0.0018 C   0  0  0  0  0  0  0  0  0  0  0  0
    0.0422   -2.1258    1.1837 C   0  0  0  0  0  0  0  0  0  0  0  0
    0.0233   -0.7205    1.2075 C   0  0  0  0  0  0  0  0  0  0  0  0
    0.0261   -0.0067    2.4871 C   0  0  0  0  0  0  0  0  0  0  0  0
    0.0101    1.2064    2.5051 O   0  0  0  0  0  0  0  0  0  0  0  0
    0.0489   -0.7792    3.7808 C   0  0  0  0  0  0  0  0  0  0  0  0
    0.0472    0.1831    4.9406 C   0  0  0  0  0  0  0  0  0  0  0  0
    0.0294    1.3782    4.7368 O   0  0  0  0  0  0  0  0  0  0  0  0
    0.0674   -0.3278    6.3206 C   0  0  0  0  0  0  0  0  0  0  0  0
    0.0822   -1.7056    6.5599 C   0  0  0  0  0  0  0  0  0  0  0  0
    0.1074   -2.1764    7.8557 C   0  0  0  0  0  0  0  0  0  0  0  0
    0.1058   -1.2894    8.9182 C   0  0  0  0  0  0  0  0  0  0  0  0
    0.0849    0.0755    8.6897 C   0  0  0  0  0  0  0  0  0  0  0  0
    0.0659    0.5620    7.3996 C   0  0  0  0  0  0  0  0  0  0  0  0
    1.8174    1.7268    0.8840 H   0  0  0  0  0  0  0  0  0  0  0  0
    1.8004    1.7364   -0.8958 H   0  0  0  0  0  0  0  0  0  0  0  0
    1.0905    3.0954    0.0083 H   0  0  0  0  0  0  0  0  0  0  0  0
   -0.0359    0.6976   -3.0119 H   0  0  0  0  0  0  0  0  0  0  0  0
   -0.0196   -1.5067   -4.4043 H   0  0  0  0  0  0  0  0  0  0  0  0
    0.0546   -3.8811    0.0015 H   0  0  0  0  0  0  0  0  0  0  0  0
    0.0589   -2.6756    2.1131 H   0  0  0  0  0  0  0  0  0  0  0  0
    0.9966   -0.9375    4.0579 H   0  0  0  0  0  0  0  0  0  0  0  0
    0.0611   -1.8477    3.5658 H   0  0  0  0  0  0  0  0  0  0  0  0
    0.0789   -2.3990    5.7319 H   0  0  0  0  0  0  0  0  0  0  0  0
    0.1234   -3.2400    8.0421 H   0  0  0  0  0  0  0  0  0  0  0  0
    0.1206   -1.6643    9.9309 H   0  0  0  0  0  0  0  0  0  0  0  0
    0.0838    0.7613    9.5239 H   0  0  0  0  0  0  0  0  0  0  0  0
    0.0496    1.6273    7.2228 H   0  0  0  0  0  0  0  0  0  0  0  0
  1  2  1  0  0  0  0
  1 23  1  0  0  0  0
  1 24  1  0  0  0  0
  1 25  1  0  0  0  0
  2  3  1  0  0  0  0
  3 11  2  0  0  0  0
  3  4  1  0  0  0  0
  4  8  2  0  0  0  0
  4  5  1  0  0  0  0
  5  6  2  0  0  0  0
  5 26  1  0  0  0  0
  6  7  1  0  0  0  0
  6 27  1  0  0  0  0
  7  8  1  0  0  0  0
  8  9  1  0  0  0  0
  9 10  2  0  0  0  0
  9 28  1  0  0  0  0
 10 11  1  0  0  0  0
 10 29  1  0  0  0  0
 11 12  1  0  0  0  0
 12 14  1  0  0  0  0
 12 13  2  0  0  0  0
 14 30  1  0  0  0  0
 14 31  1  0  0  0  0
 14 15  1  0  0  0  0
 15 17  1  0  0  0  0
 15 16  2  0  0  0  0
 17 22  2  0  0  0  0
 17 18  1  0  0  0  0
 18 19  2  0  0  0  0
 18 32  1  0  0  0  0
 19 20  1  0  0  0  0
 19 33  1  0  0  0  0
 20 21  2  0  0  0  0
 20 34  1  0  0  0  0
 21 22  1  0  0  0  0
 21 35  1  0  0  0  0
 22 36  1  0  0  0  0
M  END
>  <cansmi>
COc1c(ccc2c1cco2)C(=O)CC(=O)c1ccccc1

>  <HBA2>
4

>  <HBD>
0

>  <logP>
3.8971

>  <TPSA>
56.51

>  <MW>
294.301

$$$$
ZINC03869685
 OpenBabel02121623173D

 31 33  0  0  0  0  0  0  0  0999 V2000
    0.1390    1.1246   -0.8120 C   0  0  0  0  0  0  0  0  0  0  0  0
    1.3229    1.8301   -0.8179 C   0  0  0  0  0  0  0  0  0  0  0  0
    2.3812    1.4233   -0.0172 C   0  0  0  0  0  0  0  0  0  0  0  0
    2.2522    0.2984    0.7970 C   0  0  0  0  0  0  0  0  0  0  0  0
    1.0694   -0.4139    0.8086 C   0  0  0  0  0  0  0  0  0  0  0  0
    0.0021   -0.0041    0.0020 C   0  0  0  0  0  0  0  0  0  0  0  0
   -1.2620   -0.7597    0.0100 C   0  0  0  0  0  0  0  0  0  0  0  0
   -2.4587   -0.0763    0.1245 C   0  0  0  0  0  0  0  0  0  0  0  0
   -3.6655   -0.7872    0.1324 C   0  0  0  0  0  0  0  0  0  0  0  0
   -3.6167   -2.1939    0.0219 C   0  0  0  0  0  0  0  0  0  0  0  0
   -4.8018   -2.9593    0.0240 C   0  0  0  0  0  0  0  0  0  0  0  0
   -4.7326   -4.3182   -0.0844 C   0  0  0  0  0  0  0  0  0  0  0  0
   -3.4871   -4.9570   -0.1979 C   0  0  0  0  0  0  0  0  0  0  0  0
   -3.4307   -6.2860   -0.3033 O   0  0  0  0  0  0  0  0  0  0  0  0
   -2.3054   -4.2086   -0.2016 C   0  0  0  0  0  0  0  0  0  0  0  0
   -2.3616   -2.8325   -0.0921 C   0  0  0  0  0  0  0  0  0  0  0  0
   -1.2290   -2.0988   -0.0996 O   0  0  0  0  0  0  0  0  0  0  0  0
   -6.0073   -2.3463    0.1339 O   0  0  0  0  0  0  0  0  0  0  0  0
   -4.8484   -0.1420    0.2437 O   0  5  0  0  0  0  0  0  0  0  0  0
   -2.4638    1.2803    0.2294 O   0  0  0  0  0  0  0  0  0  0  0  0
    3.2919   -0.0973    1.5794 O   0  0  0  0  0  0  0  0  0  0  0  0
    3.5458    2.1225   -0.0269 O   0  0  0  0  0  0  0  0  0  0  0  0
   -0.6843    1.4460   -1.4327 H   0  0  0  0  0  0  0  0  0  0  0  0
    1.4276    2.7014   -1.4473 H   0  0  0  0  0  0  0  0  0  0  0  0
    0.9685   -1.2854    1.4384 H   0  0  0  0  0  0  0  0  0  0  0  0
   -5.6395   -4.9047   -0.0825 H   0  0  0  0  0  0  0  0  0  0  0  0
   -1.3506   -4.7057   -0.2895 H   0  0  0  0  0  0  0  0  0  0  0  0
   -6.7597   -2.9537    0.1258 H   0  0  0  0  0  0  0  0  0  0  0  0
   -3.3475    1.6656    0.3047 H   0  0  0  0  0  0  0  0  0  0  0  0
    3.2925    0.2977    2.4620 H   0  0  0  0  0  0  0  0  0  0  0  0
    3.5825    2.8346    0.6263 H   0  0  0  0  0  0  0  0  0  0  0  0
  1  6  2  0  0  0  0
  1  2  1  0  0  0  0
  1 23  1  0  0  0  0
  2  3  2  0  0  0  0
  2 24  1  0  0  0  0
  3  4  1  0  0  0  0
  3 22  1  0  0  0  0
  4  5  2  0  0  0  0
  4 21  1  0  0  0  0
  5  6  1  0  0  0  0
  5 25  1  0  0  0  0
  6  7  1  0  0  0  0
  7 17  1  0  0  0  0
  7  8  2  0  0  0  0
  8  9  1  0  0  0  0
  8 20  1  0  0  0  0
  9 10  2  0  0  0  0
  9 19  1  0  0  0  0
 10 16  1  0  0  0  0
 10 11  1  0  0  0  0
 11 12  2  0  0  0  0
 11 18  1  0  0  0  0
 12 13  1  0  0  0  0
 12 26  1  0  0  0  0
 13 14  2  0  0  0  0
 13 15  1  0  0  0  0
 15 16  2  0  0  0  0
 15 27  1  0  0  0  0
 16 17  1  0  0  0  0
 18 28  1  0  0  0  0
 20 29  1  0  0  0  0
 21 30  1  0  0  0  0
 22 31  1  0  0  0  0
M  CHG  1  19  -1
M  END
>  <cansmi>
O=c1cc2oc(c3ccc(c(c3)O)O)c(c(c2c(c1)O)[O-])O

>  <HBA2>
7

>  <HBD>
4

>  <logP>
2.3778

>  <TPSA>
134.19

>  <MW>
301.228

$$$$
ZINC05430812
 OpenBabel02121623173D

 55 57  0  0  0  0  0  0  0  0999 V2000
   -0.8510    2.1659    0.2391 C   0  0  0  0  0  0  0  0  0  0  0  0
   -0.1716    0.8232    0.1586 C   0  0  0  0  0  0  0  0  0  0  0  0
    0.1514    0.1856    1.2565 C   0  0  0  0  0  0  0  0  0  0  0  0
   -0.2428    0.7478    2.5980 C   0  0  0  0  0  0  0  0  0  0  0  0
   -1.0453   -0.2778    3.3563 C   0  0  0  0  0  0  0  0  0  0  0  0
   -2.4298   -0.3155    3.2190 C   0  0  0  0  0  0  0  0  0  0  0  0
   -3.1836   -1.2526    3.9095 C   0  0  0  0  0  0  0  0  0  0  0  0
   -2.5634   -2.1659    4.7475 C   0  0  0  0  0  0  0  0  0  0  0  0
   -1.1615   -2.1333    4.8907 C   0  0  0  0  0  0  0  0  0  0  0  0
   -0.4046   -1.1805    4.1805 C   0  0  0  0  0  0  0  0  0  0  0  0
    0.9451   -1.1473    4.3100 O   0  0  0  0  0  0  0  0  0  0  0  0
   -0.5258   -3.0644    5.7457 C   0  0  0  0  0  0  0  0  0  0  0  0
   -1.3292   -4.0001    6.4300 C   0  0  0  0  0  0  0  0  0  0  0  0
   -0.7429   -4.9469    7.2931 C   0  0  0  0  0  0  0  0  0  0  0  0
   -1.5258   -5.8448    7.9490 C   0  0  0  0  0  0  0  0  0  0  0  0
   -2.9266   -5.8317    7.7678 C   0  0  0  0  0  0  0  0  0  0  0  0
   -3.6876   -6.7149    8.4141 O   0  0  0  0  0  0  0  0  0  0  0  0
   -3.5180   -4.8966    6.9144 C   0  0  0  0  0  0  0  0  0  0  0  0
   -2.7299   -3.9806    6.2434 C   0  0  0  0  0  0  0  0  0  0  0  0
   -3.3003   -3.0762    5.4187 O   0  0  0  0  0  0  0  0  0  0  0  0
   -0.9581   -6.7587    8.7818 O   0  0  0  0  0  0  0  0  0  0  0  0
   -1.0509   -8.1320    8.3978 C   0  0  0  0  0  0  0  0  0  0  0  0
    0.7512   -4.9649    7.4891 C   0  0  0  0  0  0  0  0  0  0  0  0
    1.1359   -3.9297    8.5145 C   0  0  0  0  0  0  0  0  0  0  0  0
    1.7524   -4.2925    9.6120 C   0  0  0  0  0  0  0  0  0  0  0  0
    1.9983   -5.7529    9.8906 C   0  0  0  0  0  0  0  0  0  0  0  0
    2.2156   -3.2493   10.5959 C   0  0  0  0  0  0  0  0  0  0  0  0
    0.8135   -3.0575    5.9019 O   0  5  0  0  0  0  0  0  0  0  0  0
   -3.0481    0.5738    2.4019 O   0  0  0  0  0  0  0  0  0  0  0  0
    0.1364    0.2138   -1.1849 C   0  0  0  0  0  0  0  0  0  0  0  0
   -0.2504    2.8410    0.8486 H   0  0  0  0  0  0  0  0  0  0  0  0
   -0.9579    2.5797   -0.7637 H   0  0  0  0  0  0  0  0  0  0  0  0
   -1.8361    2.0481    0.6904 H   0  0  0  0  0  0  0  0  0  0  0  0
    0.7000   -0.7429    1.2002 H   0  0  0  0  0  0  0  0  0  0  0  0
    0.6540    0.9989    3.1644 H   0  0  0  0  0  0  0  0  0  0  0  0
   -0.8442    1.6453    2.4533 H   0  0  0  0  0  0  0  0  0  0  0  0
   -4.2573   -1.2707    3.7941 H   0  0  0  0  0  0  0  0  0  0  0  0
    1.2577   -0.5756    5.0245 H   0  0  0  0  0  0  0  0  0  0  0  0
   -4.5894   -4.8900    6.7786 H   0  0  0  0  0  0  0  0  0  0  0  0
   -0.4964   -8.2889    7.4726 H   0  0  0  0  0  0  0  0  0  0  0  0
   -0.6301   -8.7585    9.1843 H   0  0  0  0  0  0  0  0  0  0  0  0
   -2.0971   -8.3963    8.2436 H   0  0  0  0  0  0  0  0  0  0  0  0
    1.0605   -5.9513    7.8348 H   0  0  0  0  0  0  0  0  0  0  0  0
    1.2444   -4.7402    6.5433 H   0  0  0  0  0  0  0  0  0  0  0  0
    0.9033   -2.8888    8.3446 H   0  0  0  0  0  0  0  0  0  0  0  0
    2.9186   -6.0668    9.3981 H   0  0  0  0  0  0  0  0  0  0  0  0
    2.0906   -5.9072   10.9656 H   0  0  0  0  0  0  0  0  0  0  0  0
    1.1635   -6.3411    9.5095 H   0  0  0  0  0  0  0  0  0  0  0  0
    1.3575   -2.6792   10.9520 H   0  0  0  0  0  0  0  0  0  0  0  0
    2.7034   -3.7370   11.4399 H   0  0  0  0  0  0  0  0  0  0  0  0
    2.9211   -2.5770   10.1075 H   0  0  0  0  0  0  0  0  0  0  0  0
   -3.1450    0.2681    1.4896 H   0  0  0  0  0  0  0  0  0  0  0  0
   -0.2031    0.8843   -1.9744 H   0  0  0  0  0  0  0  0  0  0  0  0
    1.2116    0.0601   -1.2762 H   0  0  0  0  0  0  0  0  0  0  0  0
   -0.3766   -0.7436   -1.2758 H   0  0  0  0  0  0  0  0  0  0  0  0
  1  2  1  0  0  0  0
  1 31  1  0  0  0  0
  1 32  1  0  0  0  0
  1 33  1  0  0  0  0
  2  3  2  0  0  0  0
  2 30  1  0  0  0  0
  3  4  1  0  0  0  0
  3 34  1  0  0  0  0
  4  5  1  0  0  0  0
  4 35  1  0  0  0  0
  4 36  1  0  0  0  0
  5 10  2  0  0  0  0
  5  6  1  0  0  0  0
  6  7  2  0  0  0  0
  6 29  1  0  0  0  0
  7  8  1  0  0  0  0
  7 37  1  0  0  0  0
  8 20  1  0  0  0  0
  8  9  2  0  0  0  0
  9 10  1  0  0  0  0
  9 12  1  0  0  0  0
 10 11  1  0  0  0  0
 11 38  1  0  0  0  0
 12 13  2  0  0  0  0
 12 28  1  0  0  0  0
 13 19  1  0  0  0  0
 13 14  1  0  0  0  0
 14 15  2  0  0  0  0
 14 23  1  0  0  0  0
 15 16  1  0  0  0  0
 15 21  1  0  0  0  0
 16 17  2  0  0  0  0
 16 18  1  0  0  0  0
 18 19  2  0  0  0  0
 18 39  1  0  0  0  0
 19 20  1  0  0  0  0
 21 22  1  0  0  0  0
 22 40  1  0  0  0  0
 22 41  1  0  0  0  0
 22 42  1  0  0  0  0
 23 24  1  0  0  0  0
 23 43  1  0  0  0  0
 23 44  1  0  0  0  0
 24 25  2  0  0  0  0
 24 45  1  0  0  0  0
 25 26  1  0  0  0  0
 25 27  1  0  0  0  0
 26 46  1  0  0  0  0
 26 47  1  0  0  0  0
 26 48  1  0  0  0  0
 27 49  1  0  0  0  0
 27 50  1  0  0  0  0
 27 51  1  0  0  0  0
 29 52  1  0  0  0  0
 30 53  1  0  0  0  0
 30 54  1  0  0  0  0
 30 55  1  0  0  0  0
M  CHG  1  28  -1
M  END
>  <cansmi>
COc1c(=O)cc2c(c1CC=C(C)C)c([O-])c1c(o2)cc(c(c1O)CC=C(C)C)O

>  <HBA2>
6

>  <HBD>
2

>  <logP>
5.4788

>  <TPSA>
102.96

>  <MW>
409.452

$$$$
ZINC05765036
 OpenBabel02121623173D

 26 28  0  0  0  0  0  0  0  0999 V2000
   -0.0184    1.5028    0.0103 C   0  0  0  0  0  0  0  0  0  0  0  0
    0.0021   -0.0041    0.0020 C   0  0  0  0  0  0  0  0  0  0  0  0
   -1.1825   -0.7056    0.0039 C   0  0  0  0  0  0  0  0  0  0  0  0
   -1.1339   -2.1176   -0.0040 C   0  0  0  0  0  0  0  0  0  0  0  0
    0.1147   -2.7570   -0.0131 C   0  0  0  0  0  0  0  0  0  0  0  0
    1.2426   -2.0022   -0.0141 C   0  0  0  0  0  0  0  0  0  0  0  0
    1.1766   -0.6572   -0.0127 N   0  0  0  0  0  0  0  0  0  0  0  0
   -2.5221   -2.5838    0.0001 C   0  0  0  0  0  0  0  0  0  0  0  0
   -3.1080   -3.8549   -0.0035 C   0  0  0  0  0  0  0  0  0  0  0  0
   -4.4633   -3.9831    0.0027 C   0  0  0  0  0  0  0  0  0  0  0  0
   -5.2821   -2.8426    0.0129 C   0  0  0  0  0  0  0  0  0  0  0  0
   -6.6121   -2.9774    0.0190 O   0  3  0  0  0  0  0  0  0  0  0  0
   -4.7123   -1.5689    0.0171 C   0  0  0  0  0  0  0  0  0  0  0  0
   -3.3324   -1.4309    0.0103 C   0  0  0  0  0  0  0  0  0  0  0  0
   -2.5129   -0.3180    0.0124 N   0  0  0  0  0  0  0  0  0  0  0  0
   -2.8238    0.6008    0.0185 H   0  0  0  0  0  0  0  0  0  0  0  0
    1.0042    1.8801    0.0026 H   0  0  0  0  0  0  0  0  0  0  0  0
   -0.5455    1.8639   -0.8728 H   0  0  0  0  0  0  0  0  0  0  0  0
   -0.5286    1.8543    0.9071 H   0  0  0  0  0  0  0  0  0  0  0  0
    0.1775   -3.8351   -0.0189 H   0  0  0  0  0  0  0  0  0  0  0  0
    2.2075   -2.4875   -0.0210 H   0  0  0  0  0  0  0  0  0  0  0  0
   -2.4834   -4.7359   -0.0117 H   0  0  0  0  0  0  0  0  0  0  0  0
   -4.9105   -4.9662   -0.0005 H   0  0  0  0  0  0  0  0  0  0  0  0
   -5.3441   -0.6930    0.0249 H   0  0  0  0  0  0  0  0  0  0  0  0
    2.0004   -0.1451   -0.0181 H   0  0  0  0  0  0  0  0  0  0  0  0
   -6.9143   -3.8959    0.0157 H   0  0  0  0  0  0  0  0  0  0  0  0
  1  2  1  0  0  0  0
  1 17  1  0  0  0  0
  1 18  1  0  0  0  0
  1 19  1  0  0  0  0
  2  7  1  0  0  0  0
  2  3  2  0  0  0  0
  3 15  1  0  0  0  0
  3  4  1  0  0  0  0
  4  5  1  0  0  0  0
  4  8  2  0  0  0  0
  5  6  2  0  0  0  0
  5 20  1  0  0  0  0
  6  7  1  0  0  0  0
  6 21  1  0  0  0  0
  7 25  1  0  0  0  0
  8 14  1  0  0  0  0
  8  9  1  0  0  0  0
  9 10  2  0  0  0  0
  9 22  1  0  0  0  0
 10 11  1  0  0  0  0
 10 23  1  0  0  0  0
 11 12  2  0  0  0  0
 11 13  1  0  0  0  0
 12 26  1  0  0  0  0
 13 14  2  0  0  0  0
 13 24  1  0  0  0  0
 14 15  1  0  0  0  0
 15 16  1  0  0  0  0
M  CHG  1  12   1
M  END
>  <cansmi>
Cc1[nH]ccc2c1[nH]c1c2ccc(=[OH+])c1

>  <HBA2>
1

>  <HBD>
3

>  <logP>
2.4303

>  <TPSA>
51.81

>  <MW>
199.229

$$$$
ZINC01531764
 OpenBabel02121623173D

 47 47  0  0  0  0  0  0  0  0999 V2000
  -11.5658   -7.7241    7.2520 C   0  0  0  0  0  0  0  0  0  0  0  0
  -10.2513   -6.9411    7.2441 C   0  0  0  0  0  0  0  0  0  0  0  0
   -9.7625   -6.7795    5.8034 C   0  0  0  0  0  0  0  0  0  0  0  0
   -8.4481   -5.9966    5.7955 C   0  0  0  0  0  0  0  0  0  0  0  0
   -7.9593   -5.8350    4.3547 C   0  0  0  0  0  0  0  0  0  0  0  0
   -6.6448   -5.0520    4.3469 C   0  0  0  0  0  0  0  0  0  0  0  0
   -6.1561   -4.8904    2.9061 C   0  0  0  0  0  0  0  0  0  0  0  0
   -4.8416   -4.1075    2.8982 C   0  0  0  0  0  0  0  0  0  0  0  0
   -4.3528   -3.9459    1.4574 C   0  0  0  0  0  0  0  0  0  0  0  0
   -3.0383   -3.1629    1.4496 C   0  0  0  0  0  0  0  0  0  0  0  0
   -2.5496   -3.0013    0.0088 C   0  0  0  0  0  0  0  0  0  0  0  0
   -1.2548   -2.2302    0.0011 C   0  0  0  0  0  0  0  0  0  0  0  0
   -0.0769   -2.8892   -0.0141 C   0  0  0  0  0  0  0  0  0  0  0  0
    1.1999   -2.1287   -0.0221 C   0  0  0  0  0  0  0  0  0  0  0  0
    2.2602   -2.7218   -0.0357 O   0  0  0  0  0  0  0  0  0  0  0  0
    1.1800   -0.6630   -0.0192 C   0  0  0  0  0  0  0  0  0  0  0  0
    0.0021   -0.0041    0.0020 C   0  0  0  0  0  0  0  0  0  0  0  0
   -1.2747   -0.7645    0.0101 C   0  0  0  0  0  0  0  0  0  0  0  0
   -2.3350   -0.1714    0.0242 O   0  0  0  0  0  0  0  0  0  0  0  0
   -0.0163    1.3485    0.0095 O   0  0  0  0  0  0  0  0  0  0  0  0
   -0.0585   -4.2417   -0.0224 O   0  0  0  0  0  0  0  0  0  0  0  0
  -11.9140   -7.8392    8.2784 H   0  0  0  0  0  0  0  0  0  0  0  0
  -12.3143   -7.1832    6.6729 H   0  0  0  0  0  0  0  0  0  0  0  0
  -11.4056   -8.7075    6.8102 H   0  0  0  0  0  0  0  0  0  0  0  0
   -9.5028   -7.4820    7.8232 H   0  0  0  0  0  0  0  0  0  0  0  0
  -10.4115   -5.9577    7.6860 H   0  0  0  0  0  0  0  0  0  0  0  0
  -10.5110   -6.2386    5.2243 H   0  0  0  0  0  0  0  0  0  0  0  0
   -9.6023   -7.7630    5.3616 H   0  0  0  0  0  0  0  0  0  0  0  0
   -7.6996   -6.5375    6.3746 H   0  0  0  0  0  0  0  0  0  0  0  0
   -8.6083   -5.0131    6.2373 H   0  0  0  0  0  0  0  0  0  0  0  0
   -8.7078   -5.2941    3.7757 H   0  0  0  0  0  0  0  0  0  0  0  0
   -7.7991   -6.8184    3.9129 H   0  0  0  0  0  0  0  0  0  0  0  0
   -5.8963   -5.5929    4.9259 H   0  0  0  0  0  0  0  0  0  0  0  0
   -6.8050   -4.0686    4.7887 H   0  0  0  0  0  0  0  0  0  0  0  0
   -6.9046   -4.3495    2.3270 H   0  0  0  0  0  0  0  0  0  0  0  0
   -5.9958   -5.8739    2.4643 H   0  0  0  0  0  0  0  0  0  0  0  0
   -4.0931   -4.6484    3.4773 H   0  0  0  0  0  0  0  0  0  0  0  0
   -5.0018   -3.1240    3.3400 H   0  0  0  0  0  0  0  0  0  0  0  0
   -5.1013   -3.4050    0.8784 H   0  0  0  0  0  0  0  0  0  0  0  0
   -4.1926   -4.9293    1.0156 H   0  0  0  0  0  0  0  0  0  0  0  0
   -2.2898   -3.7038    2.0287 H   0  0  0  0  0  0  0  0  0  0  0  0
   -3.1986   -2.1795    1.8914 H   0  0  0  0  0  0  0  0  0  0  0  0
   -3.2981   -2.4605   -0.5703 H   0  0  0  0  0  0  0  0  0  0  0  0
   -2.3893   -3.9848   -0.4330 H   0  0  0  0  0  0  0  0  0  0  0  0
    2.1078   -0.1103   -0.0299 H   0  0  0  0  0  0  0  0  0  0  0  0
   -0.9635    1.6689    0.0254 H   0  0  0  0  0  0  0  0  0  0  0  0
   -3.0861   -0.8315    0.0277 H   0  0  0  0  0  0  0  0  0  0  0  0
  1  2  1  0  0  0  0
  1 22  1  0  0  0  0
  1 23  1  0  0  0  0
  1 24  1  0  0  0  0
  2  3  1  0  0  0  0
  2 25  1  0  0  0  0
  2 26  1  0  0  0  0
  3  4  1  0  0  0  0
  3 27  1  0  0  0  0
  3 28  1  0  0  0  0
  4  5  1  0  0  0  0
  4 29  1  0  0  0  0
  4 30  1  0  0  0  0
  5  6  1  0  0  0  0
  5 31  1  0  0  0  0
  5 32  1  0  0  0  0
  6  7  1  0  0  0  0
  6 33  1  0  0  0  0
  6 34  1  0  0  0  0
  7  8  1  0  0  0  0
  7 35  1  0  0  0  0
  7 36  1  0  0  0  0
  8  9  1  0  0  0  0
  8 37  1  0  0  0  0
  8 38  1  0  0  0  0
  9 10  1  0  0  0  0
  9 39  1  0  0  0  0
  9 40  1  0  0  0  0
 10 11  1  0  0  0  0
 10 41  1  0  0  0  0
 10 42  1  0  0  0  0
 11 43  1  0  0  0  0
 11 44  1  0  0  0  0
 11 12  1  0  0  0  0
 12 13  1  0  0  0  0
 12 18  2  0  0  0  0
 13 14  1  0  0  0  0
 13 21  2  0  0  0  0
 14 15  2  0  0  0  0
 14 16  1  0  0  0  0
 16 17  2  0  0  0  0
 16 45  1  0  0  0  0
 17 18  1  0  0  0  0
 17 20  1  0  0  0  0
 18 19  1  0  0  0  0
 19 47  1  0  0  0  0
 20 46  1  0  0  0  0
M  END
>  <cansmi>
CCCCCCCCCCCC1=C(O)C(=CC(=O)C1=O)O

>  <HBA2>
4

>  <HBD>
2

>  <logP>
4.3131

>  <TPSA>
74.6

>  <MW>
294.386

$$$$
ZINC02566155
 OpenBabel02121623173D

 35 37  0  0  0  0  0  0  0  0999 V2000
   -0.0616    1.4240   -0.0105 C   0  0  0  0  0  0  0  0  0  0  0  0
   -0.0273   -0.0046   -0.0115 O   0  0  0  0  0  0  0  0  0  0  0  0
    0.5782   -0.6058   -1.0673 C   0  0  0  0  0  0  0  0  0  0  0  0
    1.1292    0.1641   -2.0721 C   0  0  0  0  0  0  0  0  0  0  0  0
    1.7510   -0.4442   -3.1558 C   0  0  0  0  0  0  0  0  0  0  0  0
    1.8160   -1.8491   -3.2237 C   0  0  0  0  0  0  0  0  0  0  0  0
    2.5263   -2.1482   -4.4750 C   0  0  0  0  0  0  0  0  0  0  0  0
    2.8167   -0.9652   -5.0308 C   0  0  0  0  0  0  0  0  0  0  0  0
    2.3619    0.0366   -4.2571 O   0  0  0  0  0  0  0  0  0  0  0  0
    1.2629   -2.6286   -2.2156 C   0  0  0  0  0  0  0  0  0  0  0  0
    0.6456   -2.0101   -1.1284 C   0  0  0  0  0  0  0  0  0  0  0  0
    0.0612   -2.8244   -0.0505 C   0  0  0  0  0  0  0  0  0  0  0  0
   -0.4325   -2.2263    1.0564 O   0  5  0  0  0  0  0  0  0  0  0  0
    0.0179   -4.1835   -0.1688 C   0  0  0  0  0  0  0  0  0  0  0  0
   -0.6454   -4.9537    0.8043 C   0  0  0  0  0  0  0  0  0  0  0  0
   -0.6923   -6.4277    0.6760 C   0  0  0  0  0  0  0  0  0  0  0  0
   -0.0749   -7.0569   -0.4057 C   0  0  0  0  0  0  0  0  0  0  0  0
   -0.1223   -8.4310   -0.5196 C   0  0  0  0  0  0  0  0  0  0  0  0
   -0.7802   -9.1850    0.4360 C   0  0  0  0  0  0  0  0  0  0  0  0
   -1.3948   -8.5671    1.5107 C   0  0  0  0  0  0  0  0  0  0  0  0
   -1.3493   -7.1942    1.6393 C   0  0  0  0  0  0  0  0  0  0  0  0
   -1.1812   -4.4071    1.7528 O   0  0  0  0  0  0  0  0  0  0  0  0
    0.9570    1.8119   -0.0239 H   0  0  0  0  0  0  0  0  0  0  0  0
   -0.5957    1.7752   -0.8933 H   0  0  0  0  0  0  0  0  0  0  0  0
   -0.5721    1.7745    0.8865 H   0  0  0  0  0  0  0  0  0  0  0  0
    1.0766    1.2413   -2.0159 H   0  0  0  0  0  0  0  0  0  0  0  0
    2.7661   -3.1254   -4.8672 H   0  0  0  0  0  0  0  0  0  0  0  0
    3.3407   -0.8342   -5.9660 H   0  0  0  0  0  0  0  0  0  0  0  0
    1.3146   -3.7059   -2.2710 H   0  0  0  0  0  0  0  0  0  0  0  0
    0.4386   -6.4694   -1.1524 H   0  0  0  0  0  0  0  0  0  0  0  0
    0.3548   -8.9191   -1.3565 H   0  0  0  0  0  0  0  0  0  0  0  0
   -0.8145  -10.2604    0.3424 H   0  0  0  0  0  0  0  0  0  0  0  0
   -1.9074   -9.1612    2.2528 H   0  0  0  0  0  0  0  0  0  0  0  0
   -1.8249   -6.7135    2.4813 H   0  0  0  0  0  0  0  0  0  0  0  0
    0.4928   -4.6678   -1.0093 H   0  0  0  0  0  0  0  0  0  0  0  0
  1  2  1  0  0  0  0
  1 23  1  0  0  0  0
  1 24  1  0  0  0  0
  1 25  1  0  0  0  0
  2  3  1  0  0  0  0
  3 11  2  0  0  0  0
  3  4  1  0  0  0  0
  4  5  2  0  0  0  0
  4 26  1  0  0  0  0
  5  9  1  0  0  0  0
  5  6  1  0  0  0  0
  6  7  1  0  0  0  0
  6 10  2  0  0  0  0
  7  8  2  0  0  0  0
  7 27  1  0  0  0  0
  8  9  1  0  0  0  0
  8 28  1  0  0  0  0
 10 11  1  0  0  0  0
 10 29  1  0  0  0  0
 11 12  1  0  0  0  0
 12 14  2  0  0  0  0
 12 13  1  0  0  0  0
 14 35  1  0  0  0  0
 14 15  1  0  0  0  0
 15 16  1  0  0  0  0
 15 22  2  0  0  0  0
 16 21  2  0  0  0  0
 16 17  1  0  0  0  0
 17 18  2  0  0  0  0
 17 30  1  0  0  0  0
 18 19  1  0  0  0  0
 18 31  1  0  0  0  0
 19 20  2  0  0  0  0
 19 32  1  0  0  0  0
 20 21  1  0  0  0  0
 20 33  1  0  0  0  0
 21 34  1  0  0  0  0
M  CHG  1  13  -1
M  END
>  <cansmi>
COc1cc2occc2cc1/C(=C/C(=O)c1ccccc1)/[O-]

>  <HBA2>
4

>  <HBD>
0

>  <logP>
4.0957

>  <TPSA>
62.5

>  <MW>
293.293

$$$$
ZINC00058188
 OpenBabel02121623173D

 35 37  0  0  0  0  0  0  0  0999 V2000
    0.1947    1.4197   -0.0959 C   0  0  0  0  0  0  0  0  0  0  0  0
    0.0076    0.0067    0.0075 O   0  0  0  0  0  0  0  0  0  0  0  0
    0.6238   -0.6220    1.0388 C   0  0  0  0  0  0  0  0  0  0  0  0
    1.9573   -1.0234    0.9270 C   0  0  0  0  0  0  0  0  0  0  0  0
    2.9699   -0.9295   -0.1318 C   0  0  0  0  0  0  0  0  0  0  0  0
    4.0769   -1.5020    0.3598 C   0  0  0  0  0  0  0  0  0  0  0  0
    3.8547   -1.9399    1.6117 O   0  0  0  0  0  0  0  0  0  0  0  0
    2.5911   -1.6742    1.9977 C   0  0  0  0  0  0  0  0  0  0  0  0
    1.8823   -1.9173    3.1734 C   0  0  0  0  0  0  0  0  0  0  0  0
    0.5816   -1.5284    3.2887 C   0  0  0  0  0  0  0  0  0  0  0  0
   -0.0670   -0.8718    2.2312 C   0  0  0  0  0  0  0  0  0  0  0  0
   -1.4695   -0.4520    2.3730 C   0  0  0  0  0  0  0  0  0  0  0  0
   -2.1250    0.0822    1.3185 O   0  5  0  0  0  0  0  0  0  0  0  0
   -2.1095   -0.6020    3.5702 C   0  0  0  0  0  0  0  0  0  0  0  0
   -3.4812   -0.3101    3.6757 C   0  0  0  0  0  0  0  0  0  0  0  0
   -4.1749   -0.4726    4.9734 C   0  0  0  0  0  0  0  0  0  0  0  0
   -3.4694   -0.9097    6.0950 C   0  0  0  0  0  0  0  0  0  0  0  0
   -4.1216   -1.0586    7.3016 C   0  0  0  0  0  0  0  0  0  0  0  0
   -5.4723   -0.7757    7.4009 C   0  0  0  0  0  0  0  0  0  0  0  0
   -6.1775   -0.3419    6.2923 C   0  0  0  0  0  0  0  0  0  0  0  0
   -5.5358   -0.1838    5.0813 C   0  0  0  0  0  0  0  0  0  0  0  0
   -4.0989    0.0767    2.6986 O   0  0  0  0  0  0  0  0  0  0  0  0
    1.2563    1.6380   -0.2120 H   0  0  0  0  0  0  0  0  0  0  0  0
   -0.3505    1.7960   -0.9615 H   0  0  0  0  0  0  0  0  0  0  0  0
   -0.1790    1.9027    0.8069 H   0  0  0  0  0  0  0  0  0  0  0  0
    2.8471   -0.4883   -1.1099 H   0  0  0  0  0  0  0  0  0  0  0  0
    5.0118   -1.5983   -0.1722 H   0  0  0  0  0  0  0  0  0  0  0  0
    2.3675   -2.4177    3.9983 H   0  0  0  0  0  0  0  0  0  0  0  0
    0.0449   -1.7241    4.2053 H   0  0  0  0  0  0  0  0  0  0  0  0
   -2.4151   -1.1312    6.0188 H   0  0  0  0  0  0  0  0  0  0  0  0
   -3.5767   -1.3972    8.1705 H   0  0  0  0  0  0  0  0  0  0  0  0
   -5.9784   -0.8942    8.3475 H   0  0  0  0  0  0  0  0  0  0  0  0
   -7.2318   -0.1230    6.3761 H   0  0  0  0  0  0  0  0  0  0  0  0
   -6.0863    0.1591    4.2178 H   0  0  0  0  0  0  0  0  0  0  0  0
   -1.5622   -0.9447    4.4359 H   0  0  0  0  0  0  0  0  0  0  0  0
  1  2  1  0  0  0  0
  1 23  1  0  0  0  0
  1 24  1  0  0  0  0
  1 25  1  0  0  0  0
  2  3  1  0  0  0  0
  3 11  2  0  0  0  0
  3  4  1  0  0  0  0
  4  8  2  0  0  0  0
  4  5  1  0  0  0  0
  5  6  2  0  0  0  0
  5 26  1  0  0  0  0
  6  7  1  0  0  0  0
  6 27  1  0  0  0  0
  7  8  1  0  0  0  0
  8  9  1  0  0  0  0
  9 10  2  0  0  0  0
  9 28  1  0  0  0  0
 10 11  1  0  0  0  0
 10 29  1  0  0  0  0
 11 12  1  0  0  0  0
 12 14  2  0  0  0  0
 12 13  1  0  0  0  0
 14 35  1  0  0  0  0
 14 15  1  0  0  0  0
 15 16  1  0  0  0  0
 15 22  2  0  0  0  0
 16 21  2  0  0  0  0
 16 17  1  0  0  0  0
 17 18  2  0  0  0  0
 17 30  1  0  0  0  0
 18 19  1  0  0  0  0
 18 31  1  0  0  0  0
 19 20  2  0  0  0  0
 19 32  1  0  0  0  0
 20 21  1  0  0  0  0
 20 33  1  0  0  0  0
 21 34  1  0  0  0  0
M  CHG  1  13  -1
M  END
>  <cansmi>
COc1c(ccc2c1cco2)/C(=C/C(=O)c1ccccc1)/[O-]

>  <HBA2>
4

>  <HBD>
0

>  <logP>
4.0957

>  <TPSA>
62.5

>  <MW>
293.293

$$$$
